version 2
run randomBig-0-20210204-15:35:53-19196
attr configname randomBig
attr datetime 20210204-15:35:53
attr experiment randomBig
attr inifile singlequeue.ini
attr iterationvars ""
attr iterationvarsf ""
attr measurement ""
attr network SingleQueue
attr processid 19196
attr repetition 0
attr replication #0
attr resultdir results
attr runnumber 0
attr seedset 0
param *.numHosts 1000
param *.radioMedium.mediumLimitCache.maxTransmissionDuration 1s
param *.radioMedium.rangeFilter "\"communicationRange\""
param *.height 100m
param *.width 100m
param *.host[*].mobility.constraintAreaMinX 0m
param *.host[*].mobility.constraintAreaMinY 0m
param *.host[*].mobility.constraintAreaMinZ 0m
param *.host[*].mobility.constraintAreaMaxX 100m
param *.host[*].mobility.constraintAreaMaxY 100m
param *.host[*].mobility.constraintAreaMaxZ 0m
param *.host[*].wlan.radio.transmitter.communicationRange 10m
param *.visualizer.*.mediumVisualizer.signalFadingDistance 3m
param *.host[*].mobility.initialX "uniform(0m, 100m)"
param *.host[*].mobility.initialY "uniform(0m, 100m)"
param *.host[0].proc.hasInitToken 1
param *.host[0].stat "\"green\""
param *.host[*].proc.p 0.5
param *.height 100m
param *.width 100m
param *.host[*].proc.slotLength 1
param *.host[*].mobility.initialX "uniform(0m, 100m)"
param *.host[*].mobility.initialY "uniform(0m, 100m)"
param *.host[*].mobility.constraintAreaMinX 0m
param *.host[*].mobility.constraintAreaMinY 0m
param *.host[*].mobility.constraintAreaMinZ 0m
param *.host[*].mobility.constraintAreaMaxX 100m
param *.host[*].mobility.constraintAreaMaxY 100m
param *.host[*].mobility.constraintAreaMaxZ 0m
param *.visualizer.*.mediumVisualizer.displaySignals true
param *.visualizer.*.mediumVisualizer.signalFadingDistance 13m
param *.visualizer.*.mediumVisualizer.displayCommunicationRanges false
param **.host[*].wlan.radio.typename "\"UnitDiskRadio\""
param *.host[*].mobility.initFromDisplayString false
param *.host[*].wlan.radio.receiver.ignoreInterference false
param *.host[*].wlan.mac.useAck false
param *.host[*].wlan.mac.fullDuplex false
param *.radioMedium.propagation.typename "\"ConstantTimePropagation\""
param *.host[*].**.bitrate 1Mbps
param *.host[*].proc.p 0.5
param *.host[0].proc.hasInitToken 1
param *.host[0].stat "\"green\""
param *.host[*].mobility.typename "\"StationaryMobility\""

vector 0 SingleQueue.host[0].wlan.radio radioMode:vector ETV
attr interpolationmode sample-hold
attr source radioModeChanged
attr title "Radio mode, vector"
vector 1 SingleQueue.host[1].wlan.radio radioMode:vector ETV
attr interpolationmode sample-hold
attr source radioModeChanged
attr title "Radio mode, vector"
vector 2 SingleQueue.host[2].wlan.radio radioMode:vector ETV
attr interpolationmode sample-hold
attr source radioModeChanged
attr title "Radio mode, vector"
vector 3 SingleQueue.host[3].wlan.radio radioMode:vector ETV
attr interpolationmode sample-hold
attr source radioModeChanged
attr title "Radio mode, vector"
vector 4 SingleQueue.host[4].wlan.radio radioMode:vector ETV
attr interpolationmode sample-hold
attr source radioModeChanged
attr title "Radio mode, vector"
vector 5 SingleQueue.host[5].wlan.radio radioMode:vector ETV
attr interpolationmode sample-hold
attr source radioModeChanged
attr title "Radio mode, vector"
vector 6 SingleQueue.host[6].wlan.radio radioMode:vector ETV
attr interpolationmode sample-hold
attr source radioModeChanged
attr title "Radio mode, vector"
vector 7 SingleQueue.host[7].wlan.radio radioMode:vector ETV
attr interpolationmode sample-hold
attr source radioModeChanged
attr title "Radio mode, vector"
vector 8 SingleQueue.host[8].wlan.radio radioMode:vector ETV
attr interpolationmode sample-hold
attr source radioModeChanged
attr title "Radio mode, vector"
vector 9 SingleQueue.host[9].wlan.radio radioMode:vector ETV
attr interpolationmode sample-hold
attr source radioModeChanged
attr title "Radio mode, vector"
vector 10 SingleQueue.host[10].wlan.radio radioMode:vector ETV
attr interpolationmode sample-hold
attr source radioModeChanged
attr title "Radio mode, vector"
vector 11 SingleQueue.host[11].wlan.radio radioMode:vector ETV
attr interpolationmode sample-hold
attr source radioModeChanged
attr title "Radio mode, vector"
vector 12 SingleQueue.host[12].wlan.radio radioMode:vector ETV
attr interpolationmode sample-hold
attr source radioModeChanged
attr title "Radio mode, vector"
vector 13 SingleQueue.host[13].wlan.radio radioMode:vector ETV
attr interpolationmode sample-hold
attr source radioModeChanged
attr title "Radio mode, vector"
vector 14 SingleQueue.host[14].wlan.radio radioMode:vector ETV
attr interpolationmode sample-hold
attr source radioModeChanged
attr title "Radio mode, vector"
vector 15 SingleQueue.host[15].wlan.radio radioMode:vector ETV
attr interpolationmode sample-hold
attr source radioModeChanged
attr title "Radio mode, vector"
vector 16 SingleQueue.host[16].wlan.radio radioMode:vector ETV
attr interpolationmode sample-hold
attr source radioModeChanged
attr title "Radio mode, vector"
vector 17 SingleQueue.host[17].wlan.radio radioMode:vector ETV
attr interpolationmode sample-hold
attr source radioModeChanged
attr title "Radio mode, vector"
vector 18 SingleQueue.host[18].wlan.radio radioMode:vector ETV
attr interpolationmode sample-hold
attr source radioModeChanged
attr title "Radio mode, vector"
vector 19 SingleQueue.host[19].wlan.radio radioMode:vector ETV
attr interpolationmode sample-hold
attr source radioModeChanged
attr title "Radio mode, vector"
vector 20 SingleQueue.host[20].wlan.radio radioMode:vector ETV
attr interpolationmode sample-hold
attr source radioModeChanged
attr title "Radio mode, vector"
vector 21 SingleQueue.host[21].wlan.radio radioMode:vector ETV
attr interpolationmode sample-hold
attr source radioModeChanged
attr title "Radio mode, vector"
vector 22 SingleQueue.host[22].wlan.radio radioMode:vector ETV
attr interpolationmode sample-hold
attr source radioModeChanged
attr title "Radio mode, vector"
vector 23 SingleQueue.host[23].wlan.radio radioMode:vector ETV
attr interpolationmode sample-hold
attr source radioModeChanged
attr title "Radio mode, vector"
vector 24 SingleQueue.host[24].wlan.radio radioMode:vector ETV
attr interpolationmode sample-hold
attr source radioModeChanged
attr title "Radio mode, vector"
vector 25 SingleQueue.host[25].wlan.radio radioMode:vector ETV
attr interpolationmode sample-hold
attr source radioModeChanged
attr title "Radio mode, vector"
vector 26 SingleQueue.host[26].wlan.radio radioMode:vector ETV
attr interpolationmode sample-hold
attr source radioModeChanged
attr title "Radio mode, vector"
vector 27 SingleQueue.host[27].wlan.radio radioMode:vector ETV
attr interpolationmode sample-hold
attr source radioModeChanged
attr title "Radio mode, vector"
vector 28 SingleQueue.host[28].wlan.radio radioMode:vector ETV
attr interpolationmode sample-hold
attr source radioModeChanged
attr title "Radio mode, vector"
vector 29 SingleQueue.host[29].wlan.radio radioMode:vector ETV
attr interpolationmode sample-hold
attr source radioModeChanged
attr title "Radio mode, vector"
vector 30 SingleQueue.host[30].wlan.radio radioMode:vector ETV
attr interpolationmode sample-hold
attr source radioModeChanged
attr title "Radio mode, vector"
vector 31 SingleQueue.host[31].wlan.radio radioMode:vector ETV
attr interpolationmode sample-hold
attr source radioModeChanged
attr title "Radio mode, vector"
vector 32 SingleQueue.host[32].wlan.radio radioMode:vector ETV
attr interpolationmode sample-hold
attr source radioModeChanged
attr title "Radio mode, vector"
vector 33 SingleQueue.host[33].wlan.radio radioMode:vector ETV
attr interpolationmode sample-hold
attr source radioModeChanged
attr title "Radio mode, vector"
vector 34 SingleQueue.host[34].wlan.radio radioMode:vector ETV
attr interpolationmode sample-hold
attr source radioModeChanged
attr title "Radio mode, vector"
vector 35 SingleQueue.host[35].wlan.radio radioMode:vector ETV
attr interpolationmode sample-hold
attr source radioModeChanged
attr title "Radio mode, vector"
vector 36 SingleQueue.host[36].wlan.radio radioMode:vector ETV
attr interpolationmode sample-hold
attr source radioModeChanged
attr title "Radio mode, vector"
vector 37 SingleQueue.host[37].wlan.radio radioMode:vector ETV
attr interpolationmode sample-hold
attr source radioModeChanged
attr title "Radio mode, vector"
vector 38 SingleQueue.host[38].wlan.radio radioMode:vector ETV
attr interpolationmode sample-hold
attr source radioModeChanged
attr title "Radio mode, vector"
vector 39 SingleQueue.host[39].wlan.radio radioMode:vector ETV
attr interpolationmode sample-hold
attr source radioModeChanged
attr title "Radio mode, vector"
vector 40 SingleQueue.host[40].wlan.radio radioMode:vector ETV
attr interpolationmode sample-hold
attr source radioModeChanged
attr title "Radio mode, vector"
vector 41 SingleQueue.host[41].wlan.radio radioMode:vector ETV
attr interpolationmode sample-hold
attr source radioModeChanged
attr title "Radio mode, vector"
vector 42 SingleQueue.host[42].wlan.radio radioMode:vector ETV
attr interpolationmode sample-hold
attr source radioModeChanged
attr title "Radio mode, vector"
vector 43 SingleQueue.host[43].wlan.radio radioMode:vector ETV
attr interpolationmode sample-hold
attr source radioModeChanged
attr title "Radio mode, vector"
vector 44 SingleQueue.host[44].wlan.radio radioMode:vector ETV
attr interpolationmode sample-hold
attr source radioModeChanged
attr title "Radio mode, vector"
vector 45 SingleQueue.host[45].wlan.radio radioMode:vector ETV
attr interpolationmode sample-hold
attr source radioModeChanged
attr title "Radio mode, vector"
vector 46 SingleQueue.host[46].wlan.radio radioMode:vector ETV
attr interpolationmode sample-hold
attr source radioModeChanged
attr title "Radio mode, vector"
vector 47 SingleQueue.host[47].wlan.radio radioMode:vector ETV
attr interpolationmode sample-hold
attr source radioModeChanged
attr title "Radio mode, vector"
vector 48 SingleQueue.host[48].wlan.radio radioMode:vector ETV
attr interpolationmode sample-hold
attr source radioModeChanged
attr title "Radio mode, vector"
vector 49 SingleQueue.host[49].wlan.radio radioMode:vector ETV
attr interpolationmode sample-hold
attr source radioModeChanged
attr title "Radio mode, vector"
vector 50 SingleQueue.host[50].wlan.radio radioMode:vector ETV
attr interpolationmode sample-hold
attr source radioModeChanged
attr title "Radio mode, vector"
vector 51 SingleQueue.host[51].wlan.radio radioMode:vector ETV
attr interpolationmode sample-hold
attr source radioModeChanged
attr title "Radio mode, vector"
vector 52 SingleQueue.host[52].wlan.radio radioMode:vector ETV
attr interpolationmode sample-hold
attr source radioModeChanged
attr title "Radio mode, vector"
vector 53 SingleQueue.host[53].wlan.radio radioMode:vector ETV
attr interpolationmode sample-hold
attr source radioModeChanged
attr title "Radio mode, vector"
vector 54 SingleQueue.host[54].wlan.radio radioMode:vector ETV
attr interpolationmode sample-hold
attr source radioModeChanged
attr title "Radio mode, vector"
vector 55 SingleQueue.host[55].wlan.radio radioMode:vector ETV
attr interpolationmode sample-hold
attr source radioModeChanged
attr title "Radio mode, vector"
vector 56 SingleQueue.host[56].wlan.radio radioMode:vector ETV
attr interpolationmode sample-hold
attr source radioModeChanged
attr title "Radio mode, vector"
vector 57 SingleQueue.host[57].wlan.radio radioMode:vector ETV
attr interpolationmode sample-hold
attr source radioModeChanged
attr title "Radio mode, vector"
vector 58 SingleQueue.host[58].wlan.radio radioMode:vector ETV
attr interpolationmode sample-hold
attr source radioModeChanged
attr title "Radio mode, vector"
vector 59 SingleQueue.host[59].wlan.radio radioMode:vector ETV
attr interpolationmode sample-hold
attr source radioModeChanged
attr title "Radio mode, vector"
vector 60 SingleQueue.host[60].wlan.radio radioMode:vector ETV
attr interpolationmode sample-hold
attr source radioModeChanged
attr title "Radio mode, vector"
vector 61 SingleQueue.host[61].wlan.radio radioMode:vector ETV
attr interpolationmode sample-hold
attr source radioModeChanged
attr title "Radio mode, vector"
vector 62 SingleQueue.host[62].wlan.radio radioMode:vector ETV
attr interpolationmode sample-hold
attr source radioModeChanged
attr title "Radio mode, vector"
vector 63 SingleQueue.host[63].wlan.radio radioMode:vector ETV
attr interpolationmode sample-hold
attr source radioModeChanged
attr title "Radio mode, vector"
vector 64 SingleQueue.host[64].wlan.radio radioMode:vector ETV
attr interpolationmode sample-hold
attr source radioModeChanged
attr title "Radio mode, vector"
vector 65 SingleQueue.host[65].wlan.radio radioMode:vector ETV
attr interpolationmode sample-hold
attr source radioModeChanged
attr title "Radio mode, vector"
vector 66 SingleQueue.host[66].wlan.radio radioMode:vector ETV
attr interpolationmode sample-hold
attr source radioModeChanged
attr title "Radio mode, vector"
vector 67 SingleQueue.host[67].wlan.radio radioMode:vector ETV
attr interpolationmode sample-hold
attr source radioModeChanged
attr title "Radio mode, vector"
vector 68 SingleQueue.host[68].wlan.radio radioMode:vector ETV
attr interpolationmode sample-hold
attr source radioModeChanged
attr title "Radio mode, vector"
vector 69 SingleQueue.host[69].wlan.radio radioMode:vector ETV
attr interpolationmode sample-hold
attr source radioModeChanged
attr title "Radio mode, vector"
vector 70 SingleQueue.host[70].wlan.radio radioMode:vector ETV
attr interpolationmode sample-hold
attr source radioModeChanged
attr title "Radio mode, vector"
vector 71 SingleQueue.host[71].wlan.radio radioMode:vector ETV
attr interpolationmode sample-hold
attr source radioModeChanged
attr title "Radio mode, vector"
vector 72 SingleQueue.host[72].wlan.radio radioMode:vector ETV
attr interpolationmode sample-hold
attr source radioModeChanged
attr title "Radio mode, vector"
vector 73 SingleQueue.host[73].wlan.radio radioMode:vector ETV
attr interpolationmode sample-hold
attr source radioModeChanged
attr title "Radio mode, vector"
vector 74 SingleQueue.host[74].wlan.radio radioMode:vector ETV
attr interpolationmode sample-hold
attr source radioModeChanged
attr title "Radio mode, vector"
vector 75 SingleQueue.host[75].wlan.radio radioMode:vector ETV
attr interpolationmode sample-hold
attr source radioModeChanged
attr title "Radio mode, vector"
vector 76 SingleQueue.host[76].wlan.radio radioMode:vector ETV
attr interpolationmode sample-hold
attr source radioModeChanged
attr title "Radio mode, vector"
vector 77 SingleQueue.host[77].wlan.radio radioMode:vector ETV
attr interpolationmode sample-hold
attr source radioModeChanged
attr title "Radio mode, vector"
vector 78 SingleQueue.host[78].wlan.radio radioMode:vector ETV
attr interpolationmode sample-hold
attr source radioModeChanged
attr title "Radio mode, vector"
vector 79 SingleQueue.host[79].wlan.radio radioMode:vector ETV
attr interpolationmode sample-hold
attr source radioModeChanged
attr title "Radio mode, vector"
vector 80 SingleQueue.host[80].wlan.radio radioMode:vector ETV
attr interpolationmode sample-hold
attr source radioModeChanged
attr title "Radio mode, vector"
vector 81 SingleQueue.host[81].wlan.radio radioMode:vector ETV
attr interpolationmode sample-hold
attr source radioModeChanged
attr title "Radio mode, vector"
vector 82 SingleQueue.host[82].wlan.radio radioMode:vector ETV
attr interpolationmode sample-hold
attr source radioModeChanged
attr title "Radio mode, vector"
vector 83 SingleQueue.host[83].wlan.radio radioMode:vector ETV
attr interpolationmode sample-hold
attr source radioModeChanged
attr title "Radio mode, vector"
vector 84 SingleQueue.host[84].wlan.radio radioMode:vector ETV
attr interpolationmode sample-hold
attr source radioModeChanged
attr title "Radio mode, vector"
vector 85 SingleQueue.host[85].wlan.radio radioMode:vector ETV
attr interpolationmode sample-hold
attr source radioModeChanged
attr title "Radio mode, vector"
vector 86 SingleQueue.host[86].wlan.radio radioMode:vector ETV
attr interpolationmode sample-hold
attr source radioModeChanged
attr title "Radio mode, vector"
vector 87 SingleQueue.host[87].wlan.radio radioMode:vector ETV
attr interpolationmode sample-hold
attr source radioModeChanged
attr title "Radio mode, vector"
vector 88 SingleQueue.host[88].wlan.radio radioMode:vector ETV
attr interpolationmode sample-hold
attr source radioModeChanged
attr title "Radio mode, vector"
vector 89 SingleQueue.host[89].wlan.radio radioMode:vector ETV
attr interpolationmode sample-hold
attr source radioModeChanged
attr title "Radio mode, vector"
vector 90 SingleQueue.host[90].wlan.radio radioMode:vector ETV
attr interpolationmode sample-hold
attr source radioModeChanged
attr title "Radio mode, vector"
vector 91 SingleQueue.host[91].wlan.radio radioMode:vector ETV
attr interpolationmode sample-hold
attr source radioModeChanged
attr title "Radio mode, vector"
vector 92 SingleQueue.host[92].wlan.radio radioMode:vector ETV
attr interpolationmode sample-hold
attr source radioModeChanged
attr title "Radio mode, vector"
vector 93 SingleQueue.host[93].wlan.radio radioMode:vector ETV
attr interpolationmode sample-hold
attr source radioModeChanged
attr title "Radio mode, vector"
vector 94 SingleQueue.host[94].wlan.radio radioMode:vector ETV
attr interpolationmode sample-hold
attr source radioModeChanged
attr title "Radio mode, vector"
vector 95 SingleQueue.host[95].wlan.radio radioMode:vector ETV
attr interpolationmode sample-hold
attr source radioModeChanged
attr title "Radio mode, vector"
vector 96 SingleQueue.host[96].wlan.radio radioMode:vector ETV
attr interpolationmode sample-hold
attr source radioModeChanged
attr title "Radio mode, vector"
vector 97 SingleQueue.host[97].wlan.radio radioMode:vector ETV
attr interpolationmode sample-hold
attr source radioModeChanged
attr title "Radio mode, vector"
vector 98 SingleQueue.host[98].wlan.radio radioMode:vector ETV
attr interpolationmode sample-hold
attr source radioModeChanged
attr title "Radio mode, vector"
vector 99 SingleQueue.host[99].wlan.radio radioMode:vector ETV
attr interpolationmode sample-hold
attr source radioModeChanged
attr title "Radio mode, vector"
vector 100 SingleQueue.host[100].wlan.radio radioMode:vector ETV
attr interpolationmode sample-hold
attr source radioModeChanged
attr title "Radio mode, vector"
vector 101 SingleQueue.host[101].wlan.radio radioMode:vector ETV
attr interpolationmode sample-hold
attr source radioModeChanged
attr title "Radio mode, vector"
vector 102 SingleQueue.host[102].wlan.radio radioMode:vector ETV
attr interpolationmode sample-hold
attr source radioModeChanged
attr title "Radio mode, vector"
vector 103 SingleQueue.host[103].wlan.radio radioMode:vector ETV
attr interpolationmode sample-hold
attr source radioModeChanged
attr title "Radio mode, vector"
vector 104 SingleQueue.host[104].wlan.radio radioMode:vector ETV
attr interpolationmode sample-hold
attr source radioModeChanged
attr title "Radio mode, vector"
vector 105 SingleQueue.host[105].wlan.radio radioMode:vector ETV
attr interpolationmode sample-hold
attr source radioModeChanged
attr title "Radio mode, vector"
vector 106 SingleQueue.host[106].wlan.radio radioMode:vector ETV
attr interpolationmode sample-hold
attr source radioModeChanged
attr title "Radio mode, vector"
vector 107 SingleQueue.host[107].wlan.radio radioMode:vector ETV
attr interpolationmode sample-hold
attr source radioModeChanged
attr title "Radio mode, vector"
vector 108 SingleQueue.host[108].wlan.radio radioMode:vector ETV
attr interpolationmode sample-hold
attr source radioModeChanged
attr title "Radio mode, vector"
vector 109 SingleQueue.host[109].wlan.radio radioMode:vector ETV
attr interpolationmode sample-hold
attr source radioModeChanged
attr title "Radio mode, vector"
vector 110 SingleQueue.host[110].wlan.radio radioMode:vector ETV
attr interpolationmode sample-hold
attr source radioModeChanged
attr title "Radio mode, vector"
vector 111 SingleQueue.host[111].wlan.radio radioMode:vector ETV
attr interpolationmode sample-hold
attr source radioModeChanged
attr title "Radio mode, vector"
vector 112 SingleQueue.host[112].wlan.radio radioMode:vector ETV
attr interpolationmode sample-hold
attr source radioModeChanged
attr title "Radio mode, vector"
vector 113 SingleQueue.host[113].wlan.radio radioMode:vector ETV
attr interpolationmode sample-hold
attr source radioModeChanged
attr title "Radio mode, vector"
vector 114 SingleQueue.host[114].wlan.radio radioMode:vector ETV
attr interpolationmode sample-hold
attr source radioModeChanged
attr title "Radio mode, vector"
vector 115 SingleQueue.host[115].wlan.radio radioMode:vector ETV
attr interpolationmode sample-hold
attr source radioModeChanged
attr title "Radio mode, vector"
vector 116 SingleQueue.host[116].wlan.radio radioMode:vector ETV
attr interpolationmode sample-hold
attr source radioModeChanged
attr title "Radio mode, vector"
vector 117 SingleQueue.host[117].wlan.radio radioMode:vector ETV
attr interpolationmode sample-hold
attr source radioModeChanged
attr title "Radio mode, vector"
vector 118 SingleQueue.host[118].wlan.radio radioMode:vector ETV
attr interpolationmode sample-hold
attr source radioModeChanged
attr title "Radio mode, vector"
vector 119 SingleQueue.host[119].wlan.radio radioMode:vector ETV
attr interpolationmode sample-hold
attr source radioModeChanged
attr title "Radio mode, vector"
vector 120 SingleQueue.host[120].wlan.radio radioMode:vector ETV
attr interpolationmode sample-hold
attr source radioModeChanged
attr title "Radio mode, vector"
vector 121 SingleQueue.host[121].wlan.radio radioMode:vector ETV
attr interpolationmode sample-hold
attr source radioModeChanged
attr title "Radio mode, vector"
vector 122 SingleQueue.host[122].wlan.radio radioMode:vector ETV
attr interpolationmode sample-hold
attr source radioModeChanged
attr title "Radio mode, vector"
vector 123 SingleQueue.host[123].wlan.radio radioMode:vector ETV
attr interpolationmode sample-hold
attr source radioModeChanged
attr title "Radio mode, vector"
vector 124 SingleQueue.host[124].wlan.radio radioMode:vector ETV
attr interpolationmode sample-hold
attr source radioModeChanged
attr title "Radio mode, vector"
vector 125 SingleQueue.host[125].wlan.radio radioMode:vector ETV
attr interpolationmode sample-hold
attr source radioModeChanged
attr title "Radio mode, vector"
vector 126 SingleQueue.host[126].wlan.radio radioMode:vector ETV
attr interpolationmode sample-hold
attr source radioModeChanged
attr title "Radio mode, vector"
vector 127 SingleQueue.host[127].wlan.radio radioMode:vector ETV
attr interpolationmode sample-hold
attr source radioModeChanged
attr title "Radio mode, vector"
vector 128 SingleQueue.host[128].wlan.radio radioMode:vector ETV
attr interpolationmode sample-hold
attr source radioModeChanged
attr title "Radio mode, vector"
vector 129 SingleQueue.host[129].wlan.radio radioMode:vector ETV
attr interpolationmode sample-hold
attr source radioModeChanged
attr title "Radio mode, vector"
vector 130 SingleQueue.host[130].wlan.radio radioMode:vector ETV
attr interpolationmode sample-hold
attr source radioModeChanged
attr title "Radio mode, vector"
vector 131 SingleQueue.host[131].wlan.radio radioMode:vector ETV
attr interpolationmode sample-hold
attr source radioModeChanged
attr title "Radio mode, vector"
vector 132 SingleQueue.host[132].wlan.radio radioMode:vector ETV
attr interpolationmode sample-hold
attr source radioModeChanged
attr title "Radio mode, vector"
vector 133 SingleQueue.host[133].wlan.radio radioMode:vector ETV
attr interpolationmode sample-hold
attr source radioModeChanged
attr title "Radio mode, vector"
vector 134 SingleQueue.host[134].wlan.radio radioMode:vector ETV
attr interpolationmode sample-hold
attr source radioModeChanged
attr title "Radio mode, vector"
vector 135 SingleQueue.host[135].wlan.radio radioMode:vector ETV
attr interpolationmode sample-hold
attr source radioModeChanged
attr title "Radio mode, vector"
vector 136 SingleQueue.host[136].wlan.radio radioMode:vector ETV
attr interpolationmode sample-hold
attr source radioModeChanged
attr title "Radio mode, vector"
vector 137 SingleQueue.host[137].wlan.radio radioMode:vector ETV
attr interpolationmode sample-hold
attr source radioModeChanged
attr title "Radio mode, vector"
vector 138 SingleQueue.host[138].wlan.radio radioMode:vector ETV
attr interpolationmode sample-hold
attr source radioModeChanged
attr title "Radio mode, vector"
vector 139 SingleQueue.host[139].wlan.radio radioMode:vector ETV
attr interpolationmode sample-hold
attr source radioModeChanged
attr title "Radio mode, vector"
vector 140 SingleQueue.host[140].wlan.radio radioMode:vector ETV
attr interpolationmode sample-hold
attr source radioModeChanged
attr title "Radio mode, vector"
vector 141 SingleQueue.host[141].wlan.radio radioMode:vector ETV
attr interpolationmode sample-hold
attr source radioModeChanged
attr title "Radio mode, vector"
vector 142 SingleQueue.host[142].wlan.radio radioMode:vector ETV
attr interpolationmode sample-hold
attr source radioModeChanged
attr title "Radio mode, vector"
vector 143 SingleQueue.host[143].wlan.radio radioMode:vector ETV
attr interpolationmode sample-hold
attr source radioModeChanged
attr title "Radio mode, vector"
vector 144 SingleQueue.host[144].wlan.radio radioMode:vector ETV
attr interpolationmode sample-hold
attr source radioModeChanged
attr title "Radio mode, vector"
vector 145 SingleQueue.host[145].wlan.radio radioMode:vector ETV
attr interpolationmode sample-hold
attr source radioModeChanged
attr title "Radio mode, vector"
vector 146 SingleQueue.host[146].wlan.radio radioMode:vector ETV
attr interpolationmode sample-hold
attr source radioModeChanged
attr title "Radio mode, vector"
vector 147 SingleQueue.host[147].wlan.radio radioMode:vector ETV
attr interpolationmode sample-hold
attr source radioModeChanged
attr title "Radio mode, vector"
vector 148 SingleQueue.host[148].wlan.radio radioMode:vector ETV
attr interpolationmode sample-hold
attr source radioModeChanged
attr title "Radio mode, vector"
vector 149 SingleQueue.host[149].wlan.radio radioMode:vector ETV
attr interpolationmode sample-hold
attr source radioModeChanged
attr title "Radio mode, vector"
vector 150 SingleQueue.host[150].wlan.radio radioMode:vector ETV
attr interpolationmode sample-hold
attr source radioModeChanged
attr title "Radio mode, vector"
vector 151 SingleQueue.host[151].wlan.radio radioMode:vector ETV
attr interpolationmode sample-hold
attr source radioModeChanged
attr title "Radio mode, vector"
vector 152 SingleQueue.host[152].wlan.radio radioMode:vector ETV
attr interpolationmode sample-hold
attr source radioModeChanged
attr title "Radio mode, vector"
vector 153 SingleQueue.host[153].wlan.radio radioMode:vector ETV
attr interpolationmode sample-hold
attr source radioModeChanged
attr title "Radio mode, vector"
vector 154 SingleQueue.host[154].wlan.radio radioMode:vector ETV
attr interpolationmode sample-hold
attr source radioModeChanged
attr title "Radio mode, vector"
vector 155 SingleQueue.host[155].wlan.radio radioMode:vector ETV
attr interpolationmode sample-hold
attr source radioModeChanged
attr title "Radio mode, vector"
vector 156 SingleQueue.host[156].wlan.radio radioMode:vector ETV
attr interpolationmode sample-hold
attr source radioModeChanged
attr title "Radio mode, vector"
vector 157 SingleQueue.host[157].wlan.radio radioMode:vector ETV
attr interpolationmode sample-hold
attr source radioModeChanged
attr title "Radio mode, vector"
vector 158 SingleQueue.host[158].wlan.radio radioMode:vector ETV
attr interpolationmode sample-hold
attr source radioModeChanged
attr title "Radio mode, vector"
vector 159 SingleQueue.host[159].wlan.radio radioMode:vector ETV
attr interpolationmode sample-hold
attr source radioModeChanged
attr title "Radio mode, vector"
vector 160 SingleQueue.host[160].wlan.radio radioMode:vector ETV
attr interpolationmode sample-hold
attr source radioModeChanged
attr title "Radio mode, vector"
vector 161 SingleQueue.host[161].wlan.radio radioMode:vector ETV
attr interpolationmode sample-hold
attr source radioModeChanged
attr title "Radio mode, vector"
vector 162 SingleQueue.host[162].wlan.radio radioMode:vector ETV
attr interpolationmode sample-hold
attr source radioModeChanged
attr title "Radio mode, vector"
vector 163 SingleQueue.host[163].wlan.radio radioMode:vector ETV
attr interpolationmode sample-hold
attr source radioModeChanged
attr title "Radio mode, vector"
vector 164 SingleQueue.host[164].wlan.radio radioMode:vector ETV
attr interpolationmode sample-hold
attr source radioModeChanged
attr title "Radio mode, vector"
vector 165 SingleQueue.host[165].wlan.radio radioMode:vector ETV
attr interpolationmode sample-hold
attr source radioModeChanged
attr title "Radio mode, vector"
vector 166 SingleQueue.host[166].wlan.radio radioMode:vector ETV
attr interpolationmode sample-hold
attr source radioModeChanged
attr title "Radio mode, vector"
vector 167 SingleQueue.host[167].wlan.radio radioMode:vector ETV
attr interpolationmode sample-hold
attr source radioModeChanged
attr title "Radio mode, vector"
vector 168 SingleQueue.host[168].wlan.radio radioMode:vector ETV
attr interpolationmode sample-hold
attr source radioModeChanged
attr title "Radio mode, vector"
vector 169 SingleQueue.host[169].wlan.radio radioMode:vector ETV
attr interpolationmode sample-hold
attr source radioModeChanged
attr title "Radio mode, vector"
vector 170 SingleQueue.host[170].wlan.radio radioMode:vector ETV
attr interpolationmode sample-hold
attr source radioModeChanged
attr title "Radio mode, vector"
vector 171 SingleQueue.host[171].wlan.radio radioMode:vector ETV
attr interpolationmode sample-hold
attr source radioModeChanged
attr title "Radio mode, vector"
vector 172 SingleQueue.host[172].wlan.radio radioMode:vector ETV
attr interpolationmode sample-hold
attr source radioModeChanged
attr title "Radio mode, vector"
vector 173 SingleQueue.host[173].wlan.radio radioMode:vector ETV
attr interpolationmode sample-hold
attr source radioModeChanged
attr title "Radio mode, vector"
vector 174 SingleQueue.host[174].wlan.radio radioMode:vector ETV
attr interpolationmode sample-hold
attr source radioModeChanged
attr title "Radio mode, vector"
vector 175 SingleQueue.host[175].wlan.radio radioMode:vector ETV
attr interpolationmode sample-hold
attr source radioModeChanged
attr title "Radio mode, vector"
vector 176 SingleQueue.host[176].wlan.radio radioMode:vector ETV
attr interpolationmode sample-hold
attr source radioModeChanged
attr title "Radio mode, vector"
vector 177 SingleQueue.host[177].wlan.radio radioMode:vector ETV
attr interpolationmode sample-hold
attr source radioModeChanged
attr title "Radio mode, vector"
vector 178 SingleQueue.host[178].wlan.radio radioMode:vector ETV
attr interpolationmode sample-hold
attr source radioModeChanged
attr title "Radio mode, vector"
vector 179 SingleQueue.host[179].wlan.radio radioMode:vector ETV
attr interpolationmode sample-hold
attr source radioModeChanged
attr title "Radio mode, vector"
vector 180 SingleQueue.host[180].wlan.radio radioMode:vector ETV
attr interpolationmode sample-hold
attr source radioModeChanged
attr title "Radio mode, vector"
vector 181 SingleQueue.host[181].wlan.radio radioMode:vector ETV
attr interpolationmode sample-hold
attr source radioModeChanged
attr title "Radio mode, vector"
vector 182 SingleQueue.host[182].wlan.radio radioMode:vector ETV
attr interpolationmode sample-hold
attr source radioModeChanged
attr title "Radio mode, vector"
vector 183 SingleQueue.host[183].wlan.radio radioMode:vector ETV
attr interpolationmode sample-hold
attr source radioModeChanged
attr title "Radio mode, vector"
vector 184 SingleQueue.host[184].wlan.radio radioMode:vector ETV
attr interpolationmode sample-hold
attr source radioModeChanged
attr title "Radio mode, vector"
vector 185 SingleQueue.host[185].wlan.radio radioMode:vector ETV
attr interpolationmode sample-hold
attr source radioModeChanged
attr title "Radio mode, vector"
vector 186 SingleQueue.host[186].wlan.radio radioMode:vector ETV
attr interpolationmode sample-hold
attr source radioModeChanged
attr title "Radio mode, vector"
vector 187 SingleQueue.host[187].wlan.radio radioMode:vector ETV
attr interpolationmode sample-hold
attr source radioModeChanged
attr title "Radio mode, vector"
vector 188 SingleQueue.host[188].wlan.radio radioMode:vector ETV
attr interpolationmode sample-hold
attr source radioModeChanged
attr title "Radio mode, vector"
vector 189 SingleQueue.host[189].wlan.radio radioMode:vector ETV
attr interpolationmode sample-hold
attr source radioModeChanged
attr title "Radio mode, vector"
vector 190 SingleQueue.host[190].wlan.radio radioMode:vector ETV
attr interpolationmode sample-hold
attr source radioModeChanged
attr title "Radio mode, vector"
vector 191 SingleQueue.host[191].wlan.radio radioMode:vector ETV
attr interpolationmode sample-hold
attr source radioModeChanged
attr title "Radio mode, vector"
vector 192 SingleQueue.host[192].wlan.radio radioMode:vector ETV
attr interpolationmode sample-hold
attr source radioModeChanged
attr title "Radio mode, vector"
vector 193 SingleQueue.host[193].wlan.radio radioMode:vector ETV
attr interpolationmode sample-hold
attr source radioModeChanged
attr title "Radio mode, vector"
vector 194 SingleQueue.host[194].wlan.radio radioMode:vector ETV
attr interpolationmode sample-hold
attr source radioModeChanged
attr title "Radio mode, vector"
vector 195 SingleQueue.host[195].wlan.radio radioMode:vector ETV
attr interpolationmode sample-hold
attr source radioModeChanged
attr title "Radio mode, vector"
vector 196 SingleQueue.host[196].wlan.radio radioMode:vector ETV
attr interpolationmode sample-hold
attr source radioModeChanged
attr title "Radio mode, vector"
vector 197 SingleQueue.host[197].wlan.radio radioMode:vector ETV
attr interpolationmode sample-hold
attr source radioModeChanged
attr title "Radio mode, vector"
vector 198 SingleQueue.host[198].wlan.radio radioMode:vector ETV
attr interpolationmode sample-hold
attr source radioModeChanged
attr title "Radio mode, vector"
vector 199 SingleQueue.host[199].wlan.radio radioMode:vector ETV
attr interpolationmode sample-hold
attr source radioModeChanged
attr title "Radio mode, vector"
vector 200 SingleQueue.host[200].wlan.radio radioMode:vector ETV
attr interpolationmode sample-hold
attr source radioModeChanged
attr title "Radio mode, vector"
vector 201 SingleQueue.host[201].wlan.radio radioMode:vector ETV
attr interpolationmode sample-hold
attr source radioModeChanged
attr title "Radio mode, vector"
vector 202 SingleQueue.host[202].wlan.radio radioMode:vector ETV
attr interpolationmode sample-hold
attr source radioModeChanged
attr title "Radio mode, vector"
vector 203 SingleQueue.host[203].wlan.radio radioMode:vector ETV
attr interpolationmode sample-hold
attr source radioModeChanged
attr title "Radio mode, vector"
vector 204 SingleQueue.host[204].wlan.radio radioMode:vector ETV
attr interpolationmode sample-hold
attr source radioModeChanged
attr title "Radio mode, vector"
vector 205 SingleQueue.host[205].wlan.radio radioMode:vector ETV
attr interpolationmode sample-hold
attr source radioModeChanged
attr title "Radio mode, vector"
vector 206 SingleQueue.host[206].wlan.radio radioMode:vector ETV
attr interpolationmode sample-hold
attr source radioModeChanged
attr title "Radio mode, vector"
vector 207 SingleQueue.host[207].wlan.radio radioMode:vector ETV
attr interpolationmode sample-hold
attr source radioModeChanged
attr title "Radio mode, vector"
vector 208 SingleQueue.host[208].wlan.radio radioMode:vector ETV
attr interpolationmode sample-hold
attr source radioModeChanged
attr title "Radio mode, vector"
vector 209 SingleQueue.host[209].wlan.radio radioMode:vector ETV
attr interpolationmode sample-hold
attr source radioModeChanged
attr title "Radio mode, vector"
vector 210 SingleQueue.host[210].wlan.radio radioMode:vector ETV
attr interpolationmode sample-hold
attr source radioModeChanged
attr title "Radio mode, vector"
vector 211 SingleQueue.host[211].wlan.radio radioMode:vector ETV
attr interpolationmode sample-hold
attr source radioModeChanged
attr title "Radio mode, vector"
vector 212 SingleQueue.host[212].wlan.radio radioMode:vector ETV
attr interpolationmode sample-hold
attr source radioModeChanged
attr title "Radio mode, vector"
vector 213 SingleQueue.host[213].wlan.radio radioMode:vector ETV
attr interpolationmode sample-hold
attr source radioModeChanged
attr title "Radio mode, vector"
vector 214 SingleQueue.host[214].wlan.radio radioMode:vector ETV
attr interpolationmode sample-hold
attr source radioModeChanged
attr title "Radio mode, vector"
vector 215 SingleQueue.host[215].wlan.radio radioMode:vector ETV
attr interpolationmode sample-hold
attr source radioModeChanged
attr title "Radio mode, vector"
vector 216 SingleQueue.host[216].wlan.radio radioMode:vector ETV
attr interpolationmode sample-hold
attr source radioModeChanged
attr title "Radio mode, vector"
vector 217 SingleQueue.host[217].wlan.radio radioMode:vector ETV
attr interpolationmode sample-hold
attr source radioModeChanged
attr title "Radio mode, vector"
vector 218 SingleQueue.host[218].wlan.radio radioMode:vector ETV
attr interpolationmode sample-hold
attr source radioModeChanged
attr title "Radio mode, vector"
vector 219 SingleQueue.host[219].wlan.radio radioMode:vector ETV
attr interpolationmode sample-hold
attr source radioModeChanged
attr title "Radio mode, vector"
vector 220 SingleQueue.host[220].wlan.radio radioMode:vector ETV
attr interpolationmode sample-hold
attr source radioModeChanged
attr title "Radio mode, vector"
vector 221 SingleQueue.host[221].wlan.radio radioMode:vector ETV
attr interpolationmode sample-hold
attr source radioModeChanged
attr title "Radio mode, vector"
vector 222 SingleQueue.host[222].wlan.radio radioMode:vector ETV
attr interpolationmode sample-hold
attr source radioModeChanged
attr title "Radio mode, vector"
vector 223 SingleQueue.host[223].wlan.radio radioMode:vector ETV
attr interpolationmode sample-hold
attr source radioModeChanged
attr title "Radio mode, vector"
vector 224 SingleQueue.host[224].wlan.radio radioMode:vector ETV
attr interpolationmode sample-hold
attr source radioModeChanged
attr title "Radio mode, vector"
vector 225 SingleQueue.host[225].wlan.radio radioMode:vector ETV
attr interpolationmode sample-hold
attr source radioModeChanged
attr title "Radio mode, vector"
vector 226 SingleQueue.host[226].wlan.radio radioMode:vector ETV
attr interpolationmode sample-hold
attr source radioModeChanged
attr title "Radio mode, vector"
vector 227 SingleQueue.host[227].wlan.radio radioMode:vector ETV
attr interpolationmode sample-hold
attr source radioModeChanged
attr title "Radio mode, vector"
vector 228 SingleQueue.host[228].wlan.radio radioMode:vector ETV
attr interpolationmode sample-hold
attr source radioModeChanged
attr title "Radio mode, vector"
vector 229 SingleQueue.host[229].wlan.radio radioMode:vector ETV
attr interpolationmode sample-hold
attr source radioModeChanged
attr title "Radio mode, vector"
vector 230 SingleQueue.host[230].wlan.radio radioMode:vector ETV
attr interpolationmode sample-hold
attr source radioModeChanged
attr title "Radio mode, vector"
vector 231 SingleQueue.host[231].wlan.radio radioMode:vector ETV
attr interpolationmode sample-hold
attr source radioModeChanged
attr title "Radio mode, vector"
vector 232 SingleQueue.host[232].wlan.radio radioMode:vector ETV
attr interpolationmode sample-hold
attr source radioModeChanged
attr title "Radio mode, vector"
vector 233 SingleQueue.host[233].wlan.radio radioMode:vector ETV
attr interpolationmode sample-hold
attr source radioModeChanged
attr title "Radio mode, vector"
vector 234 SingleQueue.host[234].wlan.radio radioMode:vector ETV
attr interpolationmode sample-hold
attr source radioModeChanged
attr title "Radio mode, vector"
vector 235 SingleQueue.host[235].wlan.radio radioMode:vector ETV
attr interpolationmode sample-hold
attr source radioModeChanged
attr title "Radio mode, vector"
vector 236 SingleQueue.host[236].wlan.radio radioMode:vector ETV
attr interpolationmode sample-hold
attr source radioModeChanged
attr title "Radio mode, vector"
vector 237 SingleQueue.host[237].wlan.radio radioMode:vector ETV
attr interpolationmode sample-hold
attr source radioModeChanged
attr title "Radio mode, vector"
vector 238 SingleQueue.host[238].wlan.radio radioMode:vector ETV
attr interpolationmode sample-hold
attr source radioModeChanged
attr title "Radio mode, vector"
vector 239 SingleQueue.host[239].wlan.radio radioMode:vector ETV
attr interpolationmode sample-hold
attr source radioModeChanged
attr title "Radio mode, vector"
vector 240 SingleQueue.host[240].wlan.radio radioMode:vector ETV
attr interpolationmode sample-hold
attr source radioModeChanged
attr title "Radio mode, vector"
vector 241 SingleQueue.host[241].wlan.radio radioMode:vector ETV
attr interpolationmode sample-hold
attr source radioModeChanged
attr title "Radio mode, vector"
vector 242 SingleQueue.host[242].wlan.radio radioMode:vector ETV
attr interpolationmode sample-hold
attr source radioModeChanged
attr title "Radio mode, vector"
vector 243 SingleQueue.host[243].wlan.radio radioMode:vector ETV
attr interpolationmode sample-hold
attr source radioModeChanged
attr title "Radio mode, vector"
vector 244 SingleQueue.host[244].wlan.radio radioMode:vector ETV
attr interpolationmode sample-hold
attr source radioModeChanged
attr title "Radio mode, vector"
vector 245 SingleQueue.host[245].wlan.radio radioMode:vector ETV
attr interpolationmode sample-hold
attr source radioModeChanged
attr title "Radio mode, vector"
vector 246 SingleQueue.host[246].wlan.radio radioMode:vector ETV
attr interpolationmode sample-hold
attr source radioModeChanged
attr title "Radio mode, vector"
vector 247 SingleQueue.host[247].wlan.radio radioMode:vector ETV
attr interpolationmode sample-hold
attr source radioModeChanged
attr title "Radio mode, vector"
vector 248 SingleQueue.host[248].wlan.radio radioMode:vector ETV
attr interpolationmode sample-hold
attr source radioModeChanged
attr title "Radio mode, vector"
vector 249 SingleQueue.host[249].wlan.radio radioMode:vector ETV
attr interpolationmode sample-hold
attr source radioModeChanged
attr title "Radio mode, vector"
vector 250 SingleQueue.host[250].wlan.radio radioMode:vector ETV
attr interpolationmode sample-hold
attr source radioModeChanged
attr title "Radio mode, vector"
vector 251 SingleQueue.host[251].wlan.radio radioMode:vector ETV
attr interpolationmode sample-hold
attr source radioModeChanged
attr title "Radio mode, vector"
vector 252 SingleQueue.host[252].wlan.radio radioMode:vector ETV
attr interpolationmode sample-hold
attr source radioModeChanged
attr title "Radio mode, vector"
vector 253 SingleQueue.host[253].wlan.radio radioMode:vector ETV
attr interpolationmode sample-hold
attr source radioModeChanged
attr title "Radio mode, vector"
vector 254 SingleQueue.host[254].wlan.radio radioMode:vector ETV
attr interpolationmode sample-hold
attr source radioModeChanged
attr title "Radio mode, vector"
vector 255 SingleQueue.host[255].wlan.radio radioMode:vector ETV
attr interpolationmode sample-hold
attr source radioModeChanged
attr title "Radio mode, vector"
vector 256 SingleQueue.host[256].wlan.radio radioMode:vector ETV
attr interpolationmode sample-hold
attr source radioModeChanged
attr title "Radio mode, vector"
vector 257 SingleQueue.host[257].wlan.radio radioMode:vector ETV
attr interpolationmode sample-hold
attr source radioModeChanged
attr title "Radio mode, vector"
vector 258 SingleQueue.host[258].wlan.radio radioMode:vector ETV
attr interpolationmode sample-hold
attr source radioModeChanged
attr title "Radio mode, vector"
vector 259 SingleQueue.host[259].wlan.radio radioMode:vector ETV
attr interpolationmode sample-hold
attr source radioModeChanged
attr title "Radio mode, vector"
vector 260 SingleQueue.host[260].wlan.radio radioMode:vector ETV
attr interpolationmode sample-hold
attr source radioModeChanged
attr title "Radio mode, vector"
vector 261 SingleQueue.host[261].wlan.radio radioMode:vector ETV
attr interpolationmode sample-hold
attr source radioModeChanged
attr title "Radio mode, vector"
vector 262 SingleQueue.host[262].wlan.radio radioMode:vector ETV
attr interpolationmode sample-hold
attr source radioModeChanged
attr title "Radio mode, vector"
vector 263 SingleQueue.host[263].wlan.radio radioMode:vector ETV
attr interpolationmode sample-hold
attr source radioModeChanged
attr title "Radio mode, vector"
vector 264 SingleQueue.host[264].wlan.radio radioMode:vector ETV
attr interpolationmode sample-hold
attr source radioModeChanged
attr title "Radio mode, vector"
vector 265 SingleQueue.host[265].wlan.radio radioMode:vector ETV
attr interpolationmode sample-hold
attr source radioModeChanged
attr title "Radio mode, vector"
vector 266 SingleQueue.host[266].wlan.radio radioMode:vector ETV
attr interpolationmode sample-hold
attr source radioModeChanged
attr title "Radio mode, vector"
vector 267 SingleQueue.host[267].wlan.radio radioMode:vector ETV
attr interpolationmode sample-hold
attr source radioModeChanged
attr title "Radio mode, vector"
vector 268 SingleQueue.host[268].wlan.radio radioMode:vector ETV
attr interpolationmode sample-hold
attr source radioModeChanged
attr title "Radio mode, vector"
vector 269 SingleQueue.host[269].wlan.radio radioMode:vector ETV
attr interpolationmode sample-hold
attr source radioModeChanged
attr title "Radio mode, vector"
vector 270 SingleQueue.host[270].wlan.radio radioMode:vector ETV
attr interpolationmode sample-hold
attr source radioModeChanged
attr title "Radio mode, vector"
vector 271 SingleQueue.host[271].wlan.radio radioMode:vector ETV
attr interpolationmode sample-hold
attr source radioModeChanged
attr title "Radio mode, vector"
vector 272 SingleQueue.host[272].wlan.radio radioMode:vector ETV
attr interpolationmode sample-hold
attr source radioModeChanged
attr title "Radio mode, vector"
vector 273 SingleQueue.host[273].wlan.radio radioMode:vector ETV
attr interpolationmode sample-hold
attr source radioModeChanged
attr title "Radio mode, vector"
vector 274 SingleQueue.host[274].wlan.radio radioMode:vector ETV
attr interpolationmode sample-hold
attr source radioModeChanged
attr title "Radio mode, vector"
vector 275 SingleQueue.host[275].wlan.radio radioMode:vector ETV
attr interpolationmode sample-hold
attr source radioModeChanged
attr title "Radio mode, vector"
vector 276 SingleQueue.host[276].wlan.radio radioMode:vector ETV
attr interpolationmode sample-hold
attr source radioModeChanged
attr title "Radio mode, vector"
vector 277 SingleQueue.host[277].wlan.radio radioMode:vector ETV
attr interpolationmode sample-hold
attr source radioModeChanged
attr title "Radio mode, vector"
vector 278 SingleQueue.host[278].wlan.radio radioMode:vector ETV
attr interpolationmode sample-hold
attr source radioModeChanged
attr title "Radio mode, vector"
vector 279 SingleQueue.host[279].wlan.radio radioMode:vector ETV
attr interpolationmode sample-hold
attr source radioModeChanged
attr title "Radio mode, vector"
vector 280 SingleQueue.host[280].wlan.radio radioMode:vector ETV
attr interpolationmode sample-hold
attr source radioModeChanged
attr title "Radio mode, vector"
vector 281 SingleQueue.host[281].wlan.radio radioMode:vector ETV
attr interpolationmode sample-hold
attr source radioModeChanged
attr title "Radio mode, vector"
vector 282 SingleQueue.host[282].wlan.radio radioMode:vector ETV
attr interpolationmode sample-hold
attr source radioModeChanged
attr title "Radio mode, vector"
vector 283 SingleQueue.host[283].wlan.radio radioMode:vector ETV
attr interpolationmode sample-hold
attr source radioModeChanged
attr title "Radio mode, vector"
vector 284 SingleQueue.host[284].wlan.radio radioMode:vector ETV
attr interpolationmode sample-hold
attr source radioModeChanged
attr title "Radio mode, vector"
vector 285 SingleQueue.host[285].wlan.radio radioMode:vector ETV
attr interpolationmode sample-hold
attr source radioModeChanged
attr title "Radio mode, vector"
vector 286 SingleQueue.host[286].wlan.radio radioMode:vector ETV
attr interpolationmode sample-hold
attr source radioModeChanged
attr title "Radio mode, vector"
vector 287 SingleQueue.host[287].wlan.radio radioMode:vector ETV
attr interpolationmode sample-hold
attr source radioModeChanged
attr title "Radio mode, vector"
vector 288 SingleQueue.host[288].wlan.radio radioMode:vector ETV
attr interpolationmode sample-hold
attr source radioModeChanged
attr title "Radio mode, vector"
vector 289 SingleQueue.host[289].wlan.radio radioMode:vector ETV
attr interpolationmode sample-hold
attr source radioModeChanged
attr title "Radio mode, vector"
vector 290 SingleQueue.host[290].wlan.radio radioMode:vector ETV
attr interpolationmode sample-hold
attr source radioModeChanged
attr title "Radio mode, vector"
vector 291 SingleQueue.host[291].wlan.radio radioMode:vector ETV
attr interpolationmode sample-hold
attr source radioModeChanged
attr title "Radio mode, vector"
vector 292 SingleQueue.host[292].wlan.radio radioMode:vector ETV
attr interpolationmode sample-hold
attr source radioModeChanged
attr title "Radio mode, vector"
vector 293 SingleQueue.host[293].wlan.radio radioMode:vector ETV
attr interpolationmode sample-hold
attr source radioModeChanged
attr title "Radio mode, vector"
vector 294 SingleQueue.host[294].wlan.radio radioMode:vector ETV
attr interpolationmode sample-hold
attr source radioModeChanged
attr title "Radio mode, vector"
vector 295 SingleQueue.host[295].wlan.radio radioMode:vector ETV
attr interpolationmode sample-hold
attr source radioModeChanged
attr title "Radio mode, vector"
vector 296 SingleQueue.host[296].wlan.radio radioMode:vector ETV
attr interpolationmode sample-hold
attr source radioModeChanged
attr title "Radio mode, vector"
vector 297 SingleQueue.host[297].wlan.radio radioMode:vector ETV
attr interpolationmode sample-hold
attr source radioModeChanged
attr title "Radio mode, vector"
vector 298 SingleQueue.host[298].wlan.radio radioMode:vector ETV
attr interpolationmode sample-hold
attr source radioModeChanged
attr title "Radio mode, vector"
vector 299 SingleQueue.host[299].wlan.radio radioMode:vector ETV
attr interpolationmode sample-hold
attr source radioModeChanged
attr title "Radio mode, vector"
vector 300 SingleQueue.host[300].wlan.radio radioMode:vector ETV
attr interpolationmode sample-hold
attr source radioModeChanged
attr title "Radio mode, vector"
vector 301 SingleQueue.host[301].wlan.radio radioMode:vector ETV
attr interpolationmode sample-hold
attr source radioModeChanged
attr title "Radio mode, vector"
vector 302 SingleQueue.host[302].wlan.radio radioMode:vector ETV
attr interpolationmode sample-hold
attr source radioModeChanged
attr title "Radio mode, vector"
vector 303 SingleQueue.host[303].wlan.radio radioMode:vector ETV
attr interpolationmode sample-hold
attr source radioModeChanged
attr title "Radio mode, vector"
vector 304 SingleQueue.host[304].wlan.radio radioMode:vector ETV
attr interpolationmode sample-hold
attr source radioModeChanged
attr title "Radio mode, vector"
vector 305 SingleQueue.host[305].wlan.radio radioMode:vector ETV
attr interpolationmode sample-hold
attr source radioModeChanged
attr title "Radio mode, vector"
vector 306 SingleQueue.host[306].wlan.radio radioMode:vector ETV
attr interpolationmode sample-hold
attr source radioModeChanged
attr title "Radio mode, vector"
vector 307 SingleQueue.host[307].wlan.radio radioMode:vector ETV
attr interpolationmode sample-hold
attr source radioModeChanged
attr title "Radio mode, vector"
vector 308 SingleQueue.host[308].wlan.radio radioMode:vector ETV
attr interpolationmode sample-hold
attr source radioModeChanged
attr title "Radio mode, vector"
vector 309 SingleQueue.host[309].wlan.radio radioMode:vector ETV
attr interpolationmode sample-hold
attr source radioModeChanged
attr title "Radio mode, vector"
vector 310 SingleQueue.host[310].wlan.radio radioMode:vector ETV
attr interpolationmode sample-hold
attr source radioModeChanged
attr title "Radio mode, vector"
vector 311 SingleQueue.host[311].wlan.radio radioMode:vector ETV
attr interpolationmode sample-hold
attr source radioModeChanged
attr title "Radio mode, vector"
vector 312 SingleQueue.host[312].wlan.radio radioMode:vector ETV
attr interpolationmode sample-hold
attr source radioModeChanged
attr title "Radio mode, vector"
vector 313 SingleQueue.host[313].wlan.radio radioMode:vector ETV
attr interpolationmode sample-hold
attr source radioModeChanged
attr title "Radio mode, vector"
vector 314 SingleQueue.host[314].wlan.radio radioMode:vector ETV
attr interpolationmode sample-hold
attr source radioModeChanged
attr title "Radio mode, vector"
vector 315 SingleQueue.host[315].wlan.radio radioMode:vector ETV
attr interpolationmode sample-hold
attr source radioModeChanged
attr title "Radio mode, vector"
vector 316 SingleQueue.host[316].wlan.radio radioMode:vector ETV
attr interpolationmode sample-hold
attr source radioModeChanged
attr title "Radio mode, vector"
vector 317 SingleQueue.host[317].wlan.radio radioMode:vector ETV
attr interpolationmode sample-hold
attr source radioModeChanged
attr title "Radio mode, vector"
vector 318 SingleQueue.host[318].wlan.radio radioMode:vector ETV
attr interpolationmode sample-hold
attr source radioModeChanged
attr title "Radio mode, vector"
vector 319 SingleQueue.host[319].wlan.radio radioMode:vector ETV
attr interpolationmode sample-hold
attr source radioModeChanged
attr title "Radio mode, vector"
vector 320 SingleQueue.host[320].wlan.radio radioMode:vector ETV
attr interpolationmode sample-hold
attr source radioModeChanged
attr title "Radio mode, vector"
vector 321 SingleQueue.host[321].wlan.radio radioMode:vector ETV
attr interpolationmode sample-hold
attr source radioModeChanged
attr title "Radio mode, vector"
vector 322 SingleQueue.host[322].wlan.radio radioMode:vector ETV
attr interpolationmode sample-hold
attr source radioModeChanged
attr title "Radio mode, vector"
vector 323 SingleQueue.host[323].wlan.radio radioMode:vector ETV
attr interpolationmode sample-hold
attr source radioModeChanged
attr title "Radio mode, vector"
vector 324 SingleQueue.host[324].wlan.radio radioMode:vector ETV
attr interpolationmode sample-hold
attr source radioModeChanged
attr title "Radio mode, vector"
vector 325 SingleQueue.host[325].wlan.radio radioMode:vector ETV
attr interpolationmode sample-hold
attr source radioModeChanged
attr title "Radio mode, vector"
vector 326 SingleQueue.host[326].wlan.radio radioMode:vector ETV
attr interpolationmode sample-hold
attr source radioModeChanged
attr title "Radio mode, vector"
vector 327 SingleQueue.host[327].wlan.radio radioMode:vector ETV
attr interpolationmode sample-hold
attr source radioModeChanged
attr title "Radio mode, vector"
vector 328 SingleQueue.host[328].wlan.radio radioMode:vector ETV
attr interpolationmode sample-hold
attr source radioModeChanged
attr title "Radio mode, vector"
vector 329 SingleQueue.host[329].wlan.radio radioMode:vector ETV
attr interpolationmode sample-hold
attr source radioModeChanged
attr title "Radio mode, vector"
vector 330 SingleQueue.host[330].wlan.radio radioMode:vector ETV
attr interpolationmode sample-hold
attr source radioModeChanged
attr title "Radio mode, vector"
vector 331 SingleQueue.host[331].wlan.radio radioMode:vector ETV
attr interpolationmode sample-hold
attr source radioModeChanged
attr title "Radio mode, vector"
vector 332 SingleQueue.host[332].wlan.radio radioMode:vector ETV
attr interpolationmode sample-hold
attr source radioModeChanged
attr title "Radio mode, vector"
vector 333 SingleQueue.host[333].wlan.radio radioMode:vector ETV
attr interpolationmode sample-hold
attr source radioModeChanged
attr title "Radio mode, vector"
vector 334 SingleQueue.host[334].wlan.radio radioMode:vector ETV
attr interpolationmode sample-hold
attr source radioModeChanged
attr title "Radio mode, vector"
vector 335 SingleQueue.host[335].wlan.radio radioMode:vector ETV
attr interpolationmode sample-hold
attr source radioModeChanged
attr title "Radio mode, vector"
vector 336 SingleQueue.host[336].wlan.radio radioMode:vector ETV
attr interpolationmode sample-hold
attr source radioModeChanged
attr title "Radio mode, vector"
vector 337 SingleQueue.host[337].wlan.radio radioMode:vector ETV
attr interpolationmode sample-hold
attr source radioModeChanged
attr title "Radio mode, vector"
vector 338 SingleQueue.host[338].wlan.radio radioMode:vector ETV
attr interpolationmode sample-hold
attr source radioModeChanged
attr title "Radio mode, vector"
vector 339 SingleQueue.host[339].wlan.radio radioMode:vector ETV
attr interpolationmode sample-hold
attr source radioModeChanged
attr title "Radio mode, vector"
vector 340 SingleQueue.host[340].wlan.radio radioMode:vector ETV
attr interpolationmode sample-hold
attr source radioModeChanged
attr title "Radio mode, vector"
vector 341 SingleQueue.host[341].wlan.radio radioMode:vector ETV
attr interpolationmode sample-hold
attr source radioModeChanged
attr title "Radio mode, vector"
vector 342 SingleQueue.host[342].wlan.radio radioMode:vector ETV
attr interpolationmode sample-hold
attr source radioModeChanged
attr title "Radio mode, vector"
vector 343 SingleQueue.host[343].wlan.radio radioMode:vector ETV
attr interpolationmode sample-hold
attr source radioModeChanged
attr title "Radio mode, vector"
vector 344 SingleQueue.host[344].wlan.radio radioMode:vector ETV
attr interpolationmode sample-hold
attr source radioModeChanged
attr title "Radio mode, vector"
vector 345 SingleQueue.host[345].wlan.radio radioMode:vector ETV
attr interpolationmode sample-hold
attr source radioModeChanged
attr title "Radio mode, vector"
vector 346 SingleQueue.host[346].wlan.radio radioMode:vector ETV
attr interpolationmode sample-hold
attr source radioModeChanged
attr title "Radio mode, vector"
vector 347 SingleQueue.host[347].wlan.radio radioMode:vector ETV
attr interpolationmode sample-hold
attr source radioModeChanged
attr title "Radio mode, vector"
vector 348 SingleQueue.host[348].wlan.radio radioMode:vector ETV
attr interpolationmode sample-hold
attr source radioModeChanged
attr title "Radio mode, vector"
vector 349 SingleQueue.host[349].wlan.radio radioMode:vector ETV
attr interpolationmode sample-hold
attr source radioModeChanged
attr title "Radio mode, vector"
vector 350 SingleQueue.host[350].wlan.radio radioMode:vector ETV
attr interpolationmode sample-hold
attr source radioModeChanged
attr title "Radio mode, vector"
vector 351 SingleQueue.host[351].wlan.radio radioMode:vector ETV
attr interpolationmode sample-hold
attr source radioModeChanged
attr title "Radio mode, vector"
vector 352 SingleQueue.host[352].wlan.radio radioMode:vector ETV
attr interpolationmode sample-hold
attr source radioModeChanged
attr title "Radio mode, vector"
vector 353 SingleQueue.host[353].wlan.radio radioMode:vector ETV
attr interpolationmode sample-hold
attr source radioModeChanged
attr title "Radio mode, vector"
vector 354 SingleQueue.host[354].wlan.radio radioMode:vector ETV
attr interpolationmode sample-hold
attr source radioModeChanged
attr title "Radio mode, vector"
vector 355 SingleQueue.host[355].wlan.radio radioMode:vector ETV
attr interpolationmode sample-hold
attr source radioModeChanged
attr title "Radio mode, vector"
vector 356 SingleQueue.host[356].wlan.radio radioMode:vector ETV
attr interpolationmode sample-hold
attr source radioModeChanged
attr title "Radio mode, vector"
vector 357 SingleQueue.host[357].wlan.radio radioMode:vector ETV
attr interpolationmode sample-hold
attr source radioModeChanged
attr title "Radio mode, vector"
vector 358 SingleQueue.host[358].wlan.radio radioMode:vector ETV
attr interpolationmode sample-hold
attr source radioModeChanged
attr title "Radio mode, vector"
vector 359 SingleQueue.host[359].wlan.radio radioMode:vector ETV
attr interpolationmode sample-hold
attr source radioModeChanged
attr title "Radio mode, vector"
vector 360 SingleQueue.host[360].wlan.radio radioMode:vector ETV
attr interpolationmode sample-hold
attr source radioModeChanged
attr title "Radio mode, vector"
vector 361 SingleQueue.host[361].wlan.radio radioMode:vector ETV
attr interpolationmode sample-hold
attr source radioModeChanged
attr title "Radio mode, vector"
vector 362 SingleQueue.host[362].wlan.radio radioMode:vector ETV
attr interpolationmode sample-hold
attr source radioModeChanged
attr title "Radio mode, vector"
vector 363 SingleQueue.host[363].wlan.radio radioMode:vector ETV
attr interpolationmode sample-hold
attr source radioModeChanged
attr title "Radio mode, vector"
vector 364 SingleQueue.host[364].wlan.radio radioMode:vector ETV
attr interpolationmode sample-hold
attr source radioModeChanged
attr title "Radio mode, vector"
vector 365 SingleQueue.host[365].wlan.radio radioMode:vector ETV
attr interpolationmode sample-hold
attr source radioModeChanged
attr title "Radio mode, vector"
vector 366 SingleQueue.host[366].wlan.radio radioMode:vector ETV
attr interpolationmode sample-hold
attr source radioModeChanged
attr title "Radio mode, vector"
vector 367 SingleQueue.host[367].wlan.radio radioMode:vector ETV
attr interpolationmode sample-hold
attr source radioModeChanged
attr title "Radio mode, vector"
vector 368 SingleQueue.host[368].wlan.radio radioMode:vector ETV
attr interpolationmode sample-hold
attr source radioModeChanged
attr title "Radio mode, vector"
vector 369 SingleQueue.host[369].wlan.radio radioMode:vector ETV
attr interpolationmode sample-hold
attr source radioModeChanged
attr title "Radio mode, vector"
vector 370 SingleQueue.host[370].wlan.radio radioMode:vector ETV
attr interpolationmode sample-hold
attr source radioModeChanged
attr title "Radio mode, vector"
vector 371 SingleQueue.host[371].wlan.radio radioMode:vector ETV
attr interpolationmode sample-hold
attr source radioModeChanged
attr title "Radio mode, vector"
vector 372 SingleQueue.host[372].wlan.radio radioMode:vector ETV
attr interpolationmode sample-hold
attr source radioModeChanged
attr title "Radio mode, vector"
vector 373 SingleQueue.host[373].wlan.radio radioMode:vector ETV
attr interpolationmode sample-hold
attr source radioModeChanged
attr title "Radio mode, vector"
vector 374 SingleQueue.host[374].wlan.radio radioMode:vector ETV
attr interpolationmode sample-hold
attr source radioModeChanged
attr title "Radio mode, vector"
vector 375 SingleQueue.host[375].wlan.radio radioMode:vector ETV
attr interpolationmode sample-hold
attr source radioModeChanged
attr title "Radio mode, vector"
vector 376 SingleQueue.host[376].wlan.radio radioMode:vector ETV
attr interpolationmode sample-hold
attr source radioModeChanged
attr title "Radio mode, vector"
vector 377 SingleQueue.host[377].wlan.radio radioMode:vector ETV
attr interpolationmode sample-hold
attr source radioModeChanged
attr title "Radio mode, vector"
vector 378 SingleQueue.host[378].wlan.radio radioMode:vector ETV
attr interpolationmode sample-hold
attr source radioModeChanged
attr title "Radio mode, vector"
vector 379 SingleQueue.host[379].wlan.radio radioMode:vector ETV
attr interpolationmode sample-hold
attr source radioModeChanged
attr title "Radio mode, vector"
vector 380 SingleQueue.host[380].wlan.radio radioMode:vector ETV
attr interpolationmode sample-hold
attr source radioModeChanged
attr title "Radio mode, vector"
vector 381 SingleQueue.host[381].wlan.radio radioMode:vector ETV
attr interpolationmode sample-hold
attr source radioModeChanged
attr title "Radio mode, vector"
vector 382 SingleQueue.host[382].wlan.radio radioMode:vector ETV
attr interpolationmode sample-hold
attr source radioModeChanged
attr title "Radio mode, vector"
vector 383 SingleQueue.host[383].wlan.radio radioMode:vector ETV
attr interpolationmode sample-hold
attr source radioModeChanged
attr title "Radio mode, vector"
vector 384 SingleQueue.host[384].wlan.radio radioMode:vector ETV
attr interpolationmode sample-hold
attr source radioModeChanged
attr title "Radio mode, vector"
vector 385 SingleQueue.host[385].wlan.radio radioMode:vector ETV
attr interpolationmode sample-hold
attr source radioModeChanged
attr title "Radio mode, vector"
vector 386 SingleQueue.host[386].wlan.radio radioMode:vector ETV
attr interpolationmode sample-hold
attr source radioModeChanged
attr title "Radio mode, vector"
vector 387 SingleQueue.host[387].wlan.radio radioMode:vector ETV
attr interpolationmode sample-hold
attr source radioModeChanged
attr title "Radio mode, vector"
vector 388 SingleQueue.host[388].wlan.radio radioMode:vector ETV
attr interpolationmode sample-hold
attr source radioModeChanged
attr title "Radio mode, vector"
vector 389 SingleQueue.host[389].wlan.radio radioMode:vector ETV
attr interpolationmode sample-hold
attr source radioModeChanged
attr title "Radio mode, vector"
vector 390 SingleQueue.host[390].wlan.radio radioMode:vector ETV
attr interpolationmode sample-hold
attr source radioModeChanged
attr title "Radio mode, vector"
vector 391 SingleQueue.host[391].wlan.radio radioMode:vector ETV
attr interpolationmode sample-hold
attr source radioModeChanged
attr title "Radio mode, vector"
vector 392 SingleQueue.host[392].wlan.radio radioMode:vector ETV
attr interpolationmode sample-hold
attr source radioModeChanged
attr title "Radio mode, vector"
vector 393 SingleQueue.host[393].wlan.radio radioMode:vector ETV
attr interpolationmode sample-hold
attr source radioModeChanged
attr title "Radio mode, vector"
vector 394 SingleQueue.host[394].wlan.radio radioMode:vector ETV
attr interpolationmode sample-hold
attr source radioModeChanged
attr title "Radio mode, vector"
vector 395 SingleQueue.host[395].wlan.radio radioMode:vector ETV
attr interpolationmode sample-hold
attr source radioModeChanged
attr title "Radio mode, vector"
vector 396 SingleQueue.host[396].wlan.radio radioMode:vector ETV
attr interpolationmode sample-hold
attr source radioModeChanged
attr title "Radio mode, vector"
vector 397 SingleQueue.host[397].wlan.radio radioMode:vector ETV
attr interpolationmode sample-hold
attr source radioModeChanged
attr title "Radio mode, vector"
vector 398 SingleQueue.host[398].wlan.radio radioMode:vector ETV
attr interpolationmode sample-hold
attr source radioModeChanged
attr title "Radio mode, vector"
vector 399 SingleQueue.host[399].wlan.radio radioMode:vector ETV
attr interpolationmode sample-hold
attr source radioModeChanged
attr title "Radio mode, vector"
vector 400 SingleQueue.host[400].wlan.radio radioMode:vector ETV
attr interpolationmode sample-hold
attr source radioModeChanged
attr title "Radio mode, vector"
vector 401 SingleQueue.host[401].wlan.radio radioMode:vector ETV
attr interpolationmode sample-hold
attr source radioModeChanged
attr title "Radio mode, vector"
vector 402 SingleQueue.host[402].wlan.radio radioMode:vector ETV
attr interpolationmode sample-hold
attr source radioModeChanged
attr title "Radio mode, vector"
vector 403 SingleQueue.host[403].wlan.radio radioMode:vector ETV
attr interpolationmode sample-hold
attr source radioModeChanged
attr title "Radio mode, vector"
vector 404 SingleQueue.host[404].wlan.radio radioMode:vector ETV
attr interpolationmode sample-hold
attr source radioModeChanged
attr title "Radio mode, vector"
vector 405 SingleQueue.host[405].wlan.radio radioMode:vector ETV
attr interpolationmode sample-hold
attr source radioModeChanged
attr title "Radio mode, vector"
vector 406 SingleQueue.host[406].wlan.radio radioMode:vector ETV
attr interpolationmode sample-hold
attr source radioModeChanged
attr title "Radio mode, vector"
vector 407 SingleQueue.host[407].wlan.radio radioMode:vector ETV
attr interpolationmode sample-hold
attr source radioModeChanged
attr title "Radio mode, vector"
vector 408 SingleQueue.host[408].wlan.radio radioMode:vector ETV
attr interpolationmode sample-hold
attr source radioModeChanged
attr title "Radio mode, vector"
vector 409 SingleQueue.host[409].wlan.radio radioMode:vector ETV
attr interpolationmode sample-hold
attr source radioModeChanged
attr title "Radio mode, vector"
vector 410 SingleQueue.host[410].wlan.radio radioMode:vector ETV
attr interpolationmode sample-hold
attr source radioModeChanged
attr title "Radio mode, vector"
vector 411 SingleQueue.host[411].wlan.radio radioMode:vector ETV
attr interpolationmode sample-hold
attr source radioModeChanged
attr title "Radio mode, vector"
vector 412 SingleQueue.host[412].wlan.radio radioMode:vector ETV
attr interpolationmode sample-hold
attr source radioModeChanged
attr title "Radio mode, vector"
vector 413 SingleQueue.host[413].wlan.radio radioMode:vector ETV
attr interpolationmode sample-hold
attr source radioModeChanged
attr title "Radio mode, vector"
vector 414 SingleQueue.host[414].wlan.radio radioMode:vector ETV
attr interpolationmode sample-hold
attr source radioModeChanged
attr title "Radio mode, vector"
vector 415 SingleQueue.host[415].wlan.radio radioMode:vector ETV
attr interpolationmode sample-hold
attr source radioModeChanged
attr title "Radio mode, vector"
vector 416 SingleQueue.host[416].wlan.radio radioMode:vector ETV
attr interpolationmode sample-hold
attr source radioModeChanged
attr title "Radio mode, vector"
vector 417 SingleQueue.host[417].wlan.radio radioMode:vector ETV
attr interpolationmode sample-hold
attr source radioModeChanged
attr title "Radio mode, vector"
vector 418 SingleQueue.host[418].wlan.radio radioMode:vector ETV
attr interpolationmode sample-hold
attr source radioModeChanged
attr title "Radio mode, vector"
vector 419 SingleQueue.host[419].wlan.radio radioMode:vector ETV
attr interpolationmode sample-hold
attr source radioModeChanged
attr title "Radio mode, vector"
vector 420 SingleQueue.host[420].wlan.radio radioMode:vector ETV
attr interpolationmode sample-hold
attr source radioModeChanged
attr title "Radio mode, vector"
vector 421 SingleQueue.host[421].wlan.radio radioMode:vector ETV
attr interpolationmode sample-hold
attr source radioModeChanged
attr title "Radio mode, vector"
vector 422 SingleQueue.host[422].wlan.radio radioMode:vector ETV
attr interpolationmode sample-hold
attr source radioModeChanged
attr title "Radio mode, vector"
vector 423 SingleQueue.host[423].wlan.radio radioMode:vector ETV
attr interpolationmode sample-hold
attr source radioModeChanged
attr title "Radio mode, vector"
vector 424 SingleQueue.host[424].wlan.radio radioMode:vector ETV
attr interpolationmode sample-hold
attr source radioModeChanged
attr title "Radio mode, vector"
vector 425 SingleQueue.host[425].wlan.radio radioMode:vector ETV
attr interpolationmode sample-hold
attr source radioModeChanged
attr title "Radio mode, vector"
vector 426 SingleQueue.host[426].wlan.radio radioMode:vector ETV
attr interpolationmode sample-hold
attr source radioModeChanged
attr title "Radio mode, vector"
vector 427 SingleQueue.host[427].wlan.radio radioMode:vector ETV
attr interpolationmode sample-hold
attr source radioModeChanged
attr title "Radio mode, vector"
vector 428 SingleQueue.host[428].wlan.radio radioMode:vector ETV
attr interpolationmode sample-hold
attr source radioModeChanged
attr title "Radio mode, vector"
vector 429 SingleQueue.host[429].wlan.radio radioMode:vector ETV
attr interpolationmode sample-hold
attr source radioModeChanged
attr title "Radio mode, vector"
vector 430 SingleQueue.host[430].wlan.radio radioMode:vector ETV
attr interpolationmode sample-hold
attr source radioModeChanged
attr title "Radio mode, vector"
vector 431 SingleQueue.host[431].wlan.radio radioMode:vector ETV
attr interpolationmode sample-hold
attr source radioModeChanged
attr title "Radio mode, vector"
vector 432 SingleQueue.host[432].wlan.radio radioMode:vector ETV
attr interpolationmode sample-hold
attr source radioModeChanged
attr title "Radio mode, vector"
vector 433 SingleQueue.host[433].wlan.radio radioMode:vector ETV
attr interpolationmode sample-hold
attr source radioModeChanged
attr title "Radio mode, vector"
vector 434 SingleQueue.host[434].wlan.radio radioMode:vector ETV
attr interpolationmode sample-hold
attr source radioModeChanged
attr title "Radio mode, vector"
vector 435 SingleQueue.host[435].wlan.radio radioMode:vector ETV
attr interpolationmode sample-hold
attr source radioModeChanged
attr title "Radio mode, vector"
vector 436 SingleQueue.host[436].wlan.radio radioMode:vector ETV
attr interpolationmode sample-hold
attr source radioModeChanged
attr title "Radio mode, vector"
vector 437 SingleQueue.host[437].wlan.radio radioMode:vector ETV
attr interpolationmode sample-hold
attr source radioModeChanged
attr title "Radio mode, vector"
vector 438 SingleQueue.host[438].wlan.radio radioMode:vector ETV
attr interpolationmode sample-hold
attr source radioModeChanged
attr title "Radio mode, vector"
vector 439 SingleQueue.host[439].wlan.radio radioMode:vector ETV
attr interpolationmode sample-hold
attr source radioModeChanged
attr title "Radio mode, vector"
vector 440 SingleQueue.host[440].wlan.radio radioMode:vector ETV
attr interpolationmode sample-hold
attr source radioModeChanged
attr title "Radio mode, vector"
vector 441 SingleQueue.host[441].wlan.radio radioMode:vector ETV
attr interpolationmode sample-hold
attr source radioModeChanged
attr title "Radio mode, vector"
vector 442 SingleQueue.host[442].wlan.radio radioMode:vector ETV
attr interpolationmode sample-hold
attr source radioModeChanged
attr title "Radio mode, vector"
vector 443 SingleQueue.host[443].wlan.radio radioMode:vector ETV
attr interpolationmode sample-hold
attr source radioModeChanged
attr title "Radio mode, vector"
vector 444 SingleQueue.host[444].wlan.radio radioMode:vector ETV
attr interpolationmode sample-hold
attr source radioModeChanged
attr title "Radio mode, vector"
vector 445 SingleQueue.host[445].wlan.radio radioMode:vector ETV
attr interpolationmode sample-hold
attr source radioModeChanged
attr title "Radio mode, vector"
vector 446 SingleQueue.host[446].wlan.radio radioMode:vector ETV
attr interpolationmode sample-hold
attr source radioModeChanged
attr title "Radio mode, vector"
vector 447 SingleQueue.host[447].wlan.radio radioMode:vector ETV
attr interpolationmode sample-hold
attr source radioModeChanged
attr title "Radio mode, vector"
vector 448 SingleQueue.host[448].wlan.radio radioMode:vector ETV
attr interpolationmode sample-hold
attr source radioModeChanged
attr title "Radio mode, vector"
vector 449 SingleQueue.host[449].wlan.radio radioMode:vector ETV
attr interpolationmode sample-hold
attr source radioModeChanged
attr title "Radio mode, vector"
vector 450 SingleQueue.host[450].wlan.radio radioMode:vector ETV
attr interpolationmode sample-hold
attr source radioModeChanged
attr title "Radio mode, vector"
vector 451 SingleQueue.host[451].wlan.radio radioMode:vector ETV
attr interpolationmode sample-hold
attr source radioModeChanged
attr title "Radio mode, vector"
vector 452 SingleQueue.host[452].wlan.radio radioMode:vector ETV
attr interpolationmode sample-hold
attr source radioModeChanged
attr title "Radio mode, vector"
vector 453 SingleQueue.host[453].wlan.radio radioMode:vector ETV
attr interpolationmode sample-hold
attr source radioModeChanged
attr title "Radio mode, vector"
vector 454 SingleQueue.host[454].wlan.radio radioMode:vector ETV
attr interpolationmode sample-hold
attr source radioModeChanged
attr title "Radio mode, vector"
vector 455 SingleQueue.host[455].wlan.radio radioMode:vector ETV
attr interpolationmode sample-hold
attr source radioModeChanged
attr title "Radio mode, vector"
vector 456 SingleQueue.host[456].wlan.radio radioMode:vector ETV
attr interpolationmode sample-hold
attr source radioModeChanged
attr title "Radio mode, vector"
vector 457 SingleQueue.host[457].wlan.radio radioMode:vector ETV
attr interpolationmode sample-hold
attr source radioModeChanged
attr title "Radio mode, vector"
vector 458 SingleQueue.host[458].wlan.radio radioMode:vector ETV
attr interpolationmode sample-hold
attr source radioModeChanged
attr title "Radio mode, vector"
vector 459 SingleQueue.host[459].wlan.radio radioMode:vector ETV
attr interpolationmode sample-hold
attr source radioModeChanged
attr title "Radio mode, vector"
vector 460 SingleQueue.host[460].wlan.radio radioMode:vector ETV
attr interpolationmode sample-hold
attr source radioModeChanged
attr title "Radio mode, vector"
vector 461 SingleQueue.host[461].wlan.radio radioMode:vector ETV
attr interpolationmode sample-hold
attr source radioModeChanged
attr title "Radio mode, vector"
vector 462 SingleQueue.host[462].wlan.radio radioMode:vector ETV
attr interpolationmode sample-hold
attr source radioModeChanged
attr title "Radio mode, vector"
vector 463 SingleQueue.host[463].wlan.radio radioMode:vector ETV
attr interpolationmode sample-hold
attr source radioModeChanged
attr title "Radio mode, vector"
vector 464 SingleQueue.host[464].wlan.radio radioMode:vector ETV
attr interpolationmode sample-hold
attr source radioModeChanged
attr title "Radio mode, vector"
vector 465 SingleQueue.host[465].wlan.radio radioMode:vector ETV
attr interpolationmode sample-hold
attr source radioModeChanged
attr title "Radio mode, vector"
vector 466 SingleQueue.host[466].wlan.radio radioMode:vector ETV
attr interpolationmode sample-hold
attr source radioModeChanged
attr title "Radio mode, vector"
vector 467 SingleQueue.host[467].wlan.radio radioMode:vector ETV
attr interpolationmode sample-hold
attr source radioModeChanged
attr title "Radio mode, vector"
vector 468 SingleQueue.host[468].wlan.radio radioMode:vector ETV
attr interpolationmode sample-hold
attr source radioModeChanged
attr title "Radio mode, vector"
vector 469 SingleQueue.host[469].wlan.radio radioMode:vector ETV
attr interpolationmode sample-hold
attr source radioModeChanged
attr title "Radio mode, vector"
vector 470 SingleQueue.host[470].wlan.radio radioMode:vector ETV
attr interpolationmode sample-hold
attr source radioModeChanged
attr title "Radio mode, vector"
vector 471 SingleQueue.host[471].wlan.radio radioMode:vector ETV
attr interpolationmode sample-hold
attr source radioModeChanged
attr title "Radio mode, vector"
vector 472 SingleQueue.host[472].wlan.radio radioMode:vector ETV
attr interpolationmode sample-hold
attr source radioModeChanged
attr title "Radio mode, vector"
vector 473 SingleQueue.host[473].wlan.radio radioMode:vector ETV
attr interpolationmode sample-hold
attr source radioModeChanged
attr title "Radio mode, vector"
vector 474 SingleQueue.host[474].wlan.radio radioMode:vector ETV
attr interpolationmode sample-hold
attr source radioModeChanged
attr title "Radio mode, vector"
vector 475 SingleQueue.host[475].wlan.radio radioMode:vector ETV
attr interpolationmode sample-hold
attr source radioModeChanged
attr title "Radio mode, vector"
vector 476 SingleQueue.host[476].wlan.radio radioMode:vector ETV
attr interpolationmode sample-hold
attr source radioModeChanged
attr title "Radio mode, vector"
vector 477 SingleQueue.host[477].wlan.radio radioMode:vector ETV
attr interpolationmode sample-hold
attr source radioModeChanged
attr title "Radio mode, vector"
vector 478 SingleQueue.host[478].wlan.radio radioMode:vector ETV
attr interpolationmode sample-hold
attr source radioModeChanged
attr title "Radio mode, vector"
vector 479 SingleQueue.host[479].wlan.radio radioMode:vector ETV
attr interpolationmode sample-hold
attr source radioModeChanged
attr title "Radio mode, vector"
vector 480 SingleQueue.host[480].wlan.radio radioMode:vector ETV
attr interpolationmode sample-hold
attr source radioModeChanged
attr title "Radio mode, vector"
vector 481 SingleQueue.host[481].wlan.radio radioMode:vector ETV
attr interpolationmode sample-hold
attr source radioModeChanged
attr title "Radio mode, vector"
vector 482 SingleQueue.host[482].wlan.radio radioMode:vector ETV
attr interpolationmode sample-hold
attr source radioModeChanged
attr title "Radio mode, vector"
vector 483 SingleQueue.host[483].wlan.radio radioMode:vector ETV
attr interpolationmode sample-hold
[...]
11387	1947672	19.0104	1020
11387	1982504	21.010624	1020
11387	1995988	23.010624	1020
11388	1843931	16.010176	1020
11388	1880662	17.0104	1020
11388	1947674	19.0104	1020
11388	1982506	21.010624	1020
11388	1995989	23.010624	1020
11389	1843932	16.010176	1020
11389	1880667	17.0104	1020
11389	1967229	20.010624	1020
11389	1982510	21.010624	1020
11389	1995993	23.010624	1020
11390	1843942	16.010176	1020
11390	1880676	17.0104	1020
11390	1947692	19.0104	1020
11390	1967238	20.010624	1020
11390	1982521	21.010624	1020
11390	1996004	23.010624	1020
11391	1848072	16.0104	1020
11391	1883780	17.010624	1020
11391	1995931	23.010624	1020
11392	1848075	16.0104	1020
11392	1995945	23.010624	1020
11393	1848076	16.0104	1020
11393	1883796	17.010624	1020
11394	1848078	16.0104	1020
11394	1883802	17.010624	1020
11394	1995950	23.010624	1020
11395	1848081	16.0104	1020
11395	1883805	17.010624	1020
11395	1995955	23.010624	1020
11396	1848082	16.0104	1020
11396	1883807	17.010624	1020
11396	1995957	23.010624	1020
11397	1855180	16.010624	1020
11397	1983617	21.010848	1020
11398	1855181	16.010624	1020
11398	1983618	21.010848	1020
11399	1855183	16.010624	1020
11399	1984662	21.011072	1020
11400	1855184	16.010624	1020
11400	1924477	18.010848	1020
11400	1983621	21.010848	1020
11401	1855186	16.010624	1020
11401	1983623	21.010848	1020
11402	1855190	16.010624	1020
11402	1983627	21.010848	1020
11403	1855191	16.010624	1020
11403	1983629	21.010848	1020
11404	1855192	16.010624	1020
11404	1983630	21.010848	1020
11405	1855194	16.010624	1020
11405	1924483	18.010848	1020
11405	1983633	21.010848	1020
11406	1855196	16.010624	1020
11406	1983634	21.010848	1020
11407	1855197	16.010624	1020
11407	1924484	18.010848	1020
11408	1855198	16.010624	1020
11409	1855206	16.010624	1020
11409	1955057	19.011072	1020
11410	1856283	16.010848	1020
11410	1956121	19.011296	1020
11410	1986749	21.01152	1020
11411	1856356	17	1020
11412	1856356	17	1020
11413	1856356	17	1
11413	1856356	17	0
11414	1856356	17	1020
11415	1856356	17	0
11416	1856356	17	1
11416	1856373	17	2
11416	1877612	17.0104	1
11416	1877612	17.0104	0
11417	1856356	17	1036
11418	1856357	17	1020
11419	1856357	17	1020
11420	1856357	17	1
11420	1856357	17	0
11421	1856357	17	1020
11422	1856357	17	0
11423	1856357	17	1
11423	1856374	17	2
11423	1873373	17.009504	1
11423	1873373	17.009504	0
11424	1856357	17	1036
11425	1856358	17	1020
11426	1856358	17	1020
11427	1856358	17	1
11427	1856358	17	0
11428	1856358	17	1020
11429	1856358	17	0
11430	1856358	17	1
11430	1856375	17	2
11430	1877613	17.0104	1
11430	1877613	17.0104	0
11431	1856358	17	1036
11432	1856359	17	1020
11433	1856359	17	1020
11434	1856359	17	1
11434	1856359	17	0
11435	1856359	17	1020
11436	1856359	17	0
11437	1856359	17	1
11437	1856376	17	2
11437	1874433	17.009952	1
11437	1874433	17.009952	0
11438	1856359	17	1036
11439	1856360	17	1020
11440	1856360	17	1020
11441	1856360	17	1
11441	1856360	17	0
11442	1856360	17	1020
11443	1856360	17	0
11444	1856360	17	1
11444	1856377	17	2
11444	1875514	17.010176	1
11444	1875514	17.010176	0
11445	1856360	17	1036
11446	1856361	17	1020
11447	1856361	17	1020
11448	1856361	17	1
11448	1856361	17	0
11449	1856361	17	1020
11450	1856361	17	0
11451	1856361	17	1
11451	1856378	17	2
11451	1875515	17.010176	1
11451	1875515	17.010176	0
11452	1856361	17	1036
11453	1856362	17	1020
11454	1856362	17	1020
11455	1856362	17	1
11455	1856362	17	0
11456	1856362	17	1020
11457	1856362	17	0
11458	1856362	17	1
11458	1856379	17	2
11458	1880745	17.010624	1
11458	1880745	17.010624	0
11459	1856362	17	1036
11460	1856363	17	1020
11461	1856363	17	1020
11462	1856363	17	1
11462	1856363	17	0
11463	1856363	17	1020
11464	1856363	17	0
11465	1856363	17	1
11465	1856380	17	2
11465	1880746	17.010624	1
11465	1880746	17.010624	0
11466	1856363	17	1036
11467	1856364	17	1020
11468	1856364	17	1020
11469	1856364	17	1
11469	1856364	17	0
11470	1856364	17	1020
11471	1856364	17	0
11472	1856364	17	1
11472	1856381	17	2
11472	1877614	17.0104	1
11472	1877614	17.0104	0
11473	1856364	17	1036
11474	1856365	17	1020
11475	1856365	17	1020
11476	1856365	17	1
11476	1856365	17	0
11477	1856365	17	1020
11478	1856365	17	0
11479	1856365	17	1
11479	1856382	17	2
11479	1880747	17.010624	1
11479	1880747	17.010624	0
11480	1856365	17	1036
11481	1856366	17	1020
11482	1856366	17	1020
11483	1856366	17	1
11483	1856366	17	0
11484	1856366	17	1020
11485	1856366	17	0
11486	1856366	17	1
11486	1856383	17	2
11486	1883858	17.010848	1
11486	1883858	17.010848	0
11487	1856366	17	1036
11488	1856367	17	1020
11489	1856367	17	1020
11490	1856367	17	1
11490	1856367	17	0
11491	1856367	17	1020
11492	1856367	17	0
11493	1856367	17	1
11493	1856384	17	2
11493	1883859	17.010848	1
11493	1883859	17.010848	0
11494	1856367	17	1036
11495	1856368	17	1020
11496	1856368	17	1020
11497	1856368	17	1
11497	1856368	17	0
11498	1856368	17	1020
11499	1856368	17	0
11500	1856368	17	1
11500	1856385	17	2
11500	1883860	17.010848	1
11500	1883860	17.010848	0
11501	1856368	17	1036
11502	1856369	17	1020
11503	1856369	17	1020
11504	1856369	17	1
11504	1856369	17	0
11505	1856369	17	1020
11506	1856369	17	0
11507	1856369	17	1
11507	1856386	17	2
11507	1883861	17.010848	1
11507	1883861	17.010848	0
11508	1856369	17	1036
11509	1856370	17	1020
11510	1856370	17	1020
11511	1856370	17	1
11511	1856370	17	0
11512	1856370	17	1020
11513	1856370	17	0
11514	1856370	17	1
11514	1856387	17	2
11514	1883862	17.010848	1
11514	1883862	17.010848	0
11515	1856370	17	1036
11516	1856371	17	1020
11517	1856371	17	1020
11518	1856371	17	1
11518	1856371	17	0
11519	1856371	17	1020
11520	1856371	17	0
11521	1856371	17	1
11521	1856388	17	2
11521	1883863	17.010848	1
11521	1883863	17.010848	0
11522	1856371	17	1036
11523	1856372	17	1020
11524	1856372	17	1020
11525	1856372	17	1
11525	1856372	17	0
11526	1856372	17	1020
11527	1856372	17	0
11528	1856372	17	1
11528	1856389	17	2
11528	1889973	17.011072	1
11528	1889973	17.011072	0
11529	1856372	17	1036
11530	1875466	17.009952	1020
11530	1947756	19.0104	1020
11531	1880665	17.0104	1020
11531	1947678	19.0104	1020
11531	1967226	20.010624	1020
11532	1889874	17.010848	1036
11532	1953989	19.010848	1036
11533	1889878	17.010848	1036
11533	1953993	19.010848	1036
11533	1969354	20.010848	1036
11534	1889894	17.010848	1020
11535	1889897	17.010848	1020
11536	1889898	17.010848	1020
11537	1889902	17.010848	1020
11538	1890982	17.011072	1020
11538	1986756	21.01152	1020
11539	1890984	17.011072	1020
11539	1986758	21.01152	1020
11540	1890985	17.011072	1020
11540	1956123	19.011296	1020
11540	1986759	21.01152	1020
11541	1890988	17.011072	1020
11541	1956125	19.011296	1020
11542	1891045	18	1020
11543	1891045	18	1020
11544	1891045	18	1
11544	1891045	18	0
11545	1891045	18	1020
11546	1891045	18	0
11547	1891045	18	1
11547	1891064	18	2
11547	1912114	18.010176	1
11547	1912114	18.010176	0
11548	1891045	18	1036
11549	1891046	18	1020
11550	1891046	18	1020
11551	1891046	18	1
11551	1891046	18	0
11552	1891046	18	1020
11553	1891046	18	0
11554	1891046	18	1
11554	1891065	18	2
11554	1910064	18.009952	1
11554	1910064	18.009952	0
11555	1891046	18	1036
11556	1891047	18	1020
11557	1891047	18	1020
11558	1891047	18	1
11558	1891047	18	0
11559	1891047	18	1020
11560	1891047	18	0
11561	1891047	18	1
11561	1891066	18	2
11561	1910065	18.009952	1
11561	1910065	18.009952	0
11562	1891047	18	1036
11563	1891048	18	1020
11564	1891048	18	1020
11565	1891048	18	1
11565	1891048	18	0
11566	1891048	18	1020
11567	1891048	18	0
11568	1891048	18	1
11568	1891067	18	2
11568	1912115	18.010176	1
11568	1912115	18.010176	0
11569	1891048	18	1036
11570	1891049	18	1020
11571	1891049	18	1020
11572	1891049	18	1
11572	1891049	18	0
11573	1891049	18	1020
11574	1891049	18	0
11575	1891049	18	1
11575	1891068	18	2
11575	1917311	18.0104	1
11575	1917311	18.0104	0
11576	1891049	18	1036
11577	1891050	18	1020
11578	1891050	18	1020
11579	1891050	18	1
11579	1891050	18	0
11580	1891050	18	1020
11581	1891050	18	0
11582	1891050	18	1
11582	1891069	18	2
11582	1912116	18.010176	1
11582	1912116	18.010176	0
11583	1891050	18	1036
11584	1891051	18	1020
11585	1891051	18	1020
11586	1891051	18	1
11586	1891051	18	0
11587	1891051	18	1020
11588	1891051	18	0
11589	1891051	18	1
11589	1891070	18	2
11589	1912117	18.010176	1
11589	1912117	18.010176	0
11590	1891051	18	1036
11591	1891052	18	1020
11592	1891052	18	1020
11593	1891052	18	1
11593	1891052	18	0
11594	1891052	18	1020
11595	1891052	18	0
11596	1891052	18	1
11596	1891071	18	2
11596	1917312	18.0104	1
11596	1917312	18.0104	0
11597	1891052	18	1036
11598	1891053	18	1020
11599	1891053	18	1020
11600	1891053	18	1
11600	1891053	18	0
11601	1891053	18	1020
11602	1891053	18	0
11603	1891053	18	1
11603	1891072	18	2
11603	1917313	18.0104	1
11603	1917313	18.0104	0
11604	1891053	18	1036
11605	1891054	18	1020
11606	1891054	18	1020
11607	1891054	18	1
11607	1891054	18	0
11608	1891054	18	1020
11609	1891054	18	0
11610	1891054	18	1
11610	1891073	18	2
11610	1920414	18.010624	1
11610	1920414	18.010624	0
11611	1891054	18	1036
11612	1891055	18	1020
11613	1891055	18	1020
11614	1891055	18	1
11614	1891055	18	0
11615	1891055	18	1020
11616	1891055	18	0
11617	1891055	18	1
11617	1891074	18	2
11617	1920415	18.010624	1
11617	1920415	18.010624	0
11618	1891055	18	1036
11619	1891056	18	1020
11620	1891056	18	1020
11621	1891056	18	1
11621	1891056	18	0
11622	1891056	18	1020
11623	1891056	18	0
11624	1891056	18	1
11624	1891075	18	2
11624	1922442	18.010848	1
11624	1922442	18.010848	0
11625	1891056	18	1036
11626	1891057	18	1020
11627	1891057	18	1020
11628	1891057	18	1
11628	1891057	18	0
11629	1891057	18	1020
11630	1891057	18	0
11631	1891057	18	1
11631	1891076	18	2
11631	1922443	18.010848	1
11631	1922443	18.010848	0
11632	1891057	18	1036
11633	1891058	18	1020
11634	1891058	18	1020
11635	1891058	18	1
11635	1891058	18	0
11636	1891058	18	1020
11637	1891058	18	0
11638	1891058	18	1
11638	1891077	18	2
11638	1912118	18.010176	1
11638	1912118	18.010176	0
11639	1891058	18	1036
11640	1891059	18	1020
11641	1891059	18	1020
11642	1891059	18	1
11642	1891059	18	0
11643	1891059	18	1020
11644	1891059	18	0
11645	1891059	18	1
11645	1891078	18	2
11645	1924499	18.011072	1
11645	1924499	18.011072	0
11646	1891059	18	1036
11647	1891060	18	1020
11648	1891060	18	1020
11649	1891060	18	1
11649	1891060	18	0
11650	1891060	18	1020
11651	1891060	18	0
11652	1891060	18	1
11652	1891079	18	2
11652	1924500	18.011072	1
11652	1924500	18.011072	0
11653	1891060	18	1036
11654	1891061	18	1020
11655	1891061	18	1020
11656	1891061	18	1
11656	1891061	18	0
11657	1891061	18	1020
11658	1891061	18	0
11659	1891061	18	1
11659	1891080	18	2
11659	1926517	18.011296	1
11659	1926517	18.011296	0
11660	1891061	18	1036
11661	1891062	18	1020
11662	1891062	18	1020
11663	1891062	18	1
11663	1891062	18	0
11664	1891062	18	1020
11665	1891062	18	0
11666	1891062	18	1
11666	1891081	18	2
11666	1926518	18.011296	1
11666	1926518	18.011296	0
11667	1891062	18	1036
11668	1891063	18	1020
11669	1891063	18	1020
11670	1891063	18	1
11670	1891063	18	0
11671	1891063	18	1020
11672	1891063	18	0
11673	1891063	18	1
11673	1891082	18	2
11673	1926519	18.011296	1
11673	1926519	18.011296	0
11674	1891063	18	1036
11675	1917152	18.010176	1020
11675	1965166	20.0104	1020
11676	1917166	18.010176	1020
11676	1947717	19.0104	1020
11677	1917192	18.010176	1020
11677	1967258	20.010624	1020
11677	1982537	21.010624	1020
11678	1920379	18.0104	1020
11678	1947695	19.0104	1020
11678	1982523	21.010624	1020
11679	1929550	19	1020
11680	1929550	19	1020
11681	1929550	19	1
11681	1929550	19	0
11682	1929550	19	1020
11683	1929550	19	0
11684	1929550	19	1
11684	1929563	19	2
11684	1943633	19.0104	1
11684	1943633	19.0104	0
11685	1929550	19	1036
11686	1929551	19	1020
11687	1929551	19	1020
11688	1929551	19	1
11688	1929551	19	0
11689	1929551	19	1020
11690	1929551	19	0
11691	1929551	19	1
11691	1929564	19	2
11691	1942564	19.010176	1
11691	1942564	19.010176	0
11692	1929551	19	1036
11693	1929552	19	1020
11694	1929552	19	1020
11695	1929552	19	1
11695	1929552	19	0
11696	1929552	19	1020
11697	1929552	19	0
11698	1929552	19	1
11698	1929565	19	2
11698	1949931	19.010848	1
11698	1949931	19.010848	0
11699	1929552	19	1036
11700	1929553	19	1020
11701	1929553	19	1020
11702	1929553	19	1
11702	1929553	19	0
11703	1929553	19	1020
11704	1929553	19	0
11705	1929553	19	1
11705	1929566	19	2
11705	1949932	19.010848	1
11705	1949932	19.010848	0
11706	1929553	19	1036
11707	1929554	19	1020
11708	1929554	19	1020
11709	1929554	19	1
11709	1929554	19	0
11710	1929554	19	1020
11711	1929554	19	0
11712	1929554	19	1
11712	1929567	19	2
11712	1943634	19.0104	1
11712	1943634	19.0104	0
11713	1929554	19	1036
11714	1929555	19	1020
11715	1929555	19	1020
11716	1929555	19	1
11716	1929555	19	0
11717	1929555	19	1020
11718	1929555	19	0
11719	1929555	19	1
11719	1929568	19	2
11719	1947878	19.010624	1
11719	1947878	19.010624	0
11720	1929555	19	1036
11721	1929556	19	1020
11722	1929556	19	1020
11723	1929556	19	1
11723	1929556	19	0
11724	1929556	19	1020
11725	1929556	19	0
11726	1929556	19	1
11726	1929569	19	2
11726	1947879	19.010624	1
11726	1947879	19.010624	0
11727	1929556	19	1036
11728	1929557	19	1020
11729	1929557	19	1020
11730	1929557	19	1
11730	1929557	19	0
11731	1929557	19	1020
11732	1929557	19	0
11733	1929557	19	1
11733	1929570	19	2
11733	1949933	19.010848	1
11733	1949933	19.010848	0
11734	1929557	19	1036
11735	1929558	19	1020
11736	1929558	19	1020
11737	1929558	19	1
11737	1929558	19	0
11738	1929558	19	1020
11739	1929558	19	0
11740	1929558	19	1
11740	1929571	19	2
11740	1949934	19.010848	1
11740	1949934	19.010848	0
11741	1929558	19	1036
11742	1929559	19	1020
11743	1929559	19	1020
11744	1929559	19	1
11744	1929559	19	0
11745	1929559	19	1020
11746	1929559	19	0
11747	1929559	19	1
11747	1929572	19	2
11747	1954043	19.011072	1
11747	1954043	19.011072	0
11748	1929559	19	1036
11749	1929560	19	1020
11750	1929560	19	1020
11751	1929560	19	1
11751	1929560	19	0
11752	1929560	19	1020
11753	1929560	19	0
11754	1929560	19	1
11754	1929573	19	2
11754	1955118	19.011296	1
11754	1955118	19.011296	0
11755	1929560	19	1036
11756	1929561	19	1020
11757	1929561	19	1020
11758	1929561	19	1
11758	1929561	19	0
11759	1929561	19	1020
11760	1929561	19	0
11761	1929561	19	1
11761	1929574	19	2
11761	1943635	19.0104	1
11761	1943635	19.0104	0
11762	1929561	19	1036
11763	1929562	19	1020
11764	1929562	19	1020
11765	1929562	19	1
11765	1929562	19	0
11766	1929562	19	1020
11767	1929562	19	0
11768	1929562	19	1
11768	1929575	19	2
11768	1943636	19.0104	1
11768	1943636	19.0104	0
11769	1929562	19	1036
11770	1947681	19.0104	1020
11771	1947735	19.0104	1020
11771	1967251	20.010624	1020
11772	1947749	19.0104	1020
11772	1982541	21.010624	1020
11773	1953965	19.010848	1020
11773	1985699	21.011296	1020
11773	1997108	23.011072	1020
11773	1999169	25.011072	1020
11774	1953967	19.010848	1020
11774	1970370	20.011072	1020
11774	1985703	21.011296	1020
11774	1997111	23.011072	1020
11775	1953971	19.010848	1020
11775	1970375	20.011072	1020
11775	1985711	21.011296	1020
11775	1988814	22.01152	1020
11775	1999177	25.011072	1020
11776	1956119	19.011296	1020
11777	1956120	19.011296	1020
11778	1956122	19.011296	1020
11779	1956152	20	1020
11780	1956152	20	1020
11781	1956152	20	1
11781	1956152	20	0
11782	1956152	20	1020
11783	1956152	20	0
11784	1956152	20	1
11784	1956160	20	2
11784	1967337	20.010848	1
11784	1967337	20.010848	0
11785	1956152	20	1036
11786	1956153	20	1020
11787	1956153	20	1020
11788	1956153	20	1
11788	1956153	20	0
11789	1956153	20	1020
11790	1956153	20	0
11791	1956153	20	1
11791	1956161	20	2
11791	1967338	20.010848	1
11791	1967338	20.010848	0
11792	1956153	20	1036
11793	1956154	20	1020
11794	1956154	20	1020
11795	1956154	20	1
11795	1956154	20	0
11796	1956154	20	1020
11797	1956154	20	0
11798	1956154	20	1
11798	1956162	20	2
11798	1964161	20.0104	1
11798	1964161	20.0104	0
11799	1956154	20	1036
11800	1956155	20	1020
11801	1956155	20	1020
11802	1956155	20	1
11802	1956155	20	0
11803	1956155	20	1020
11804	1956155	20	0
11805	1956155	20	1
11805	1956163	20	2
11805	1965213	20.010624	1
11805	1965213	20.010624	0
11806	1956155	20	1036
11807	1956156	20	1020
11808	1956156	20	1020
11809	1956156	20	1
11809	1956156	20	0
11810	1956156	20	1020
11811	1956156	20	0
11812	1956156	20	1
11812	1956164	20	2
11812	1965214	20.010624	1
11812	1965214	20.010624	0
11813	1956156	20	1036
11814	1956157	20	1020
11815	1956157	20	1020
11816	1956157	20	1
11816	1956157	20	0
11817	1956157	20	1020
11818	1956157	20	0
11819	1956157	20	1
11819	1956165	20	2
11819	1969361	20.011072	1
11819	1969361	20.011072	0
11820	1956157	20	1036
11821	1956158	20	1020
11822	1956158	20	1020
11823	1956158	20	1
11823	1956158	20	0
11824	1956158	20	1020
11825	1956158	20	0
11826	1956158	20	1
11826	1956166	20	2
11826	1970399	20.01152	1
11826	1970399	20.01152	0
11827	1956158	20	1036
11828	1956159	20	1020
11829	1956159	20	1020
11830	1956159	20	1
11830	1956159	20	0
11831	1956159	20	1020
11832	1956159	20	0
11833	1956159	20	1
11833	1956167	20	2
11833	1970400	20.01152	1
11833	1970400	20.01152	0
11834	1956159	20	1036
11835	1970364	20.011072	1020
11835	1988798	22.01152	1020
11835	1997101	23.011072	1020
11835	1999164	25.011072	1020
11836	1972442	21	1020
11837	1972442	21	1020
11838	1972442	21	1
11838	1972442	21	0
11839	1972442	21	1020
11840	1972442	21	0
11841	1972442	21	1
11841	1972449	21	2
11841	1979449	21.010176	1
11841	1979449	21.010176	0
11842	1972442	21	1036
11843	1972443	21	1020
11844	1972443	21	1020
11845	1972443	21	1
11845	1972443	21	0
11846	1972443	21	1020
11847	1972443	21	0
11848	1972443	21	1
11848	1972450	21	2
11848	1982616	21.010848	1
11848	1982616	21.010848	0
11849	1972443	21	1036
11850	1972444	21	1020
11851	1972444	21	1020
11852	1972444	21	1
11852	1972444	21	0
11853	1972444	21	1020
11854	1972444	21	0
11855	1972444	21	1
11855	1972451	21	2
11855	1980493	21.010624	1
11855	1980493	21.010624	0
11856	1972444	21	1036
11857	1972445	21	1020
11858	1972445	21	1020
11859	1972445	21	1
11859	1972445	21	0
11860	1972445	21	1020
11861	1972445	21	0
11862	1972445	21	1
11862	1972452	21	2
11862	1983654	21.011072	1
11862	1983654	21.011072	0
11863	1972445	21	1036
11864	1972446	21	1020
11865	1972446	21	1020
11866	1972446	21	1
11866	1972446	21	0
11867	1972446	21	1020
11868	1972446	21	0
11869	1972446	21	1
11869	1972453	21	2
11869	1980494	21.010624	1
11869	1980494	21.010624	0
11870	1972446	21	1036
11871	1972447	21	1020
11872	1972447	21	1020
11873	1972447	21	1
11873	1972447	21	0
11874	1972447	21	1020
11875	1972447	21	0
11876	1972447	21	1
11876	1972454	21	2
11876	1985748	21.01152	1
11876	1985748	21.01152	0
11877	1972447	21	1036
11878	1972448	21	1020
11879	1972448	21	1020
11880	1972448	21	1
11880	1972448	21	0
11881	1972448	21	1020
11882	1972448	21	0
11883	1972448	21	1
11883	1972455	21	2
11883	1984684	21.011296	1
11883	1984684	21.011296	0
11884	1972448	21	1036
11885	1985693	21.011296	1020
11885	1997102	23.011072	1020
11886	1986783	22	1020
11887	1986783	22	1020
11888	1986783	22	1
11888	1986783	22	0
11889	1986783	22	1020
11890	1986783	22	0
11891	1986783	22	1
11891	1986784	22	2
11891	1987787	22.01152	1
11891	1987787	22.01152	0
11892	1986783	22	1036
11893	1988853	23	1020
11894	1988853	23	1020
11895	1988853	23	1
11895	1988853	23	0
11896	1988853	23	1020
11897	1988853	23	0
11898	1988853	23	1
11898	1988857	23	2
11898	1992857	23.009504	1
11898	1992857	23.009504	0
11899	1988853	23	1036
11900	1988854	23	1020
11901	1988854	23	1020
11902	1988854	23	1
11902	1988854	23	0
11903	1988854	23	1020
11904	1988854	23	0
11905	1988854	23	1
11905	1988858	23	2
11905	1993929	23.010624	1
11905	1993929	23.010624	0
11906	1988854	23	1036
11907	1988855	23	1020
11908	1988855	23	1020
11909	1988855	23	1
11909	1988855	23	0
11910	1988855	23	1020
11911	1988855	23	0
11912	1988855	23	1
11912	1988859	23	2
11912	1993930	23.010624	1
11912	1993930	23.010624	0
11913	1988855	23	1036
11914	1988856	23	1020
11915	1988856	23	1020
11916	1988856	23	1
11916	1988856	23	0
11917	1988856	23	1020
11918	1988856	23	0
11919	1988856	23	1
11919	1988860	23	2
11919	1996093	23.011072	1
11919	1996093	23.011072	0
11920	1988856	23	1036
11921	1997159	25	1020
11922	1997159	25	1020
11923	1997159	25	1
11923	1997159	25	0
11924	1997159	25	1020
11925	1997159	25	0
11926	1997159	25	1
11926	1997160	25	2
11926	1998160	25.011072	1
11926	1998160	25.011072	0
11927	1997159	25	1036

