file 3916810 1612449381                                         
version 2
run randomBig-0-20210204-15:35:53-19196
attr configname randomBig
attr datetime 20210204-15:35:53
attr experiment randomBig
attr inifile singlequeue.ini
attr iterationvars ""
attr iterationvarsf ""
attr measurement ""
attr network SingleQueue
attr processid 19196
attr repetition 0
attr replication #0
attr resultdir results
attr runnumber 0
attr seedset 0
param *.numHosts 1000
param *.radioMedium.mediumLimitCache.maxTransmissionDuration 1s
param *.radioMedium.rangeFilter "\"communicationRange\""
param *.height 100m
param *.width 100m
param *.host[*].mobility.constraintAreaMinX 0m
param *.host[*].mobility.constraintAreaMinY 0m
param *.host[*].mobility.constraintAreaMinZ 0m
param *.host[*].mobility.constraintAreaMaxX 100m
param *.host[*].mobility.constraintAreaMaxY 100m
param *.host[*].mobility.constraintAreaMaxZ 0m
param *.host[*].wlan.radio.transmitter.communicationRange 10m
param *.visualizer.*.mediumVisualizer.signalFadingDistance 3m
param *.host[*].mobility.initialX "uniform(0m, 100m)"
param *.host[*].mobility.initialY "uniform(0m, 100m)"
param *.host[0].proc.hasInitToken 1
param *.host[0].stat "\"green\""
param *.host[*].proc.p 0.5
param *.height 100m
param *.width 100m
param *.host[*].proc.slotLength 1
param *.host[*].mobility.initialX "uniform(0m, 100m)"
param *.host[*].mobility.initialY "uniform(0m, 100m)"
param *.host[*].mobility.constraintAreaMinX 0m
param *.host[*].mobility.constraintAreaMinY 0m
param *.host[*].mobility.constraintAreaMinZ 0m
param *.host[*].mobility.constraintAreaMaxX 100m
param *.host[*].mobility.constraintAreaMaxY 100m
param *.host[*].mobility.constraintAreaMaxZ 0m
param *.visualizer.*.mediumVisualizer.displaySignals true
param *.visualizer.*.mediumVisualizer.signalFadingDistance 13m
param *.visualizer.*.mediumVisualizer.displayCommunicationRanges false
param **.host[*].wlan.radio.typename "\"UnitDiskRadio\""
param *.host[*].mobility.initFromDisplayString false
param *.host[*].wlan.radio.receiver.ignoreInterference false
param *.host[*].wlan.mac.useAck false
param *.host[*].wlan.mac.fullDuplex false
param *.radioMedium.propagation.typename "\"ConstantTimePropagation\""
param *.host[*].**.bitrate 1Mbps
param *.host[*].proc.p 0.5
param *.host[0].proc.hasInitToken 1
param *.host[0].stat "\"green\""
param *.host[*].mobility.typename "\"StationaryMobility\""

vector 0 SingleQueue.host[0].wlan.radio radioMode:vector ETV
attr interpolationmode sample-hold
attr source radioModeChanged
attr title "Radio mode, vector"
vector 1 SingleQueue.host[1].wlan.radio radioMode:vector ETV
attr interpolationmode sample-hold
attr source radioModeChanged
attr title "Radio mode, vector"
vector 2 SingleQueue.host[2].wlan.radio radioMode:vector ETV
attr interpolationmode sample-hold
attr source radioModeChanged
attr title "Radio mode, vector"
vector 3 SingleQueue.host[3].wlan.radio radioMode:vector ETV
attr interpolationmode sample-hold
attr source radioModeChanged
attr title "Radio mode, vector"
vector 4 SingleQueue.host[4].wlan.radio radioMode:vector ETV
attr interpolationmode sample-hold
attr source radioModeChanged
attr title "Radio mode, vector"
vector 5 SingleQueue.host[5].wlan.radio radioMode:vector ETV
attr interpolationmode sample-hold
attr source radioModeChanged
attr title "Radio mode, vector"
vector 6 SingleQueue.host[6].wlan.radio radioMode:vector ETV
attr interpolationmode sample-hold
attr source radioModeChanged
attr title "Radio mode, vector"
vector 7 SingleQueue.host[7].wlan.radio radioMode:vector ETV
attr interpolationmode sample-hold
attr source radioModeChanged
attr title "Radio mode, vector"
vector 8 SingleQueue.host[8].wlan.radio radioMode:vector ETV
attr interpolationmode sample-hold
attr source radioModeChanged
attr title "Radio mode, vector"
vector 9 SingleQueue.host[9].wlan.radio radioMode:vector ETV
attr interpolationmode sample-hold
attr source radioModeChanged
attr title "Radio mode, vector"
vector 10 SingleQueue.host[10].wlan.radio radioMode:vector ETV
attr interpolationmode sample-hold
attr source radioModeChanged
attr title "Radio mode, vector"
vector 11 SingleQueue.host[11].wlan.radio radioMode:vector ETV
attr interpolationmode sample-hold
attr source radioModeChanged
attr title "Radio mode, vector"
vector 12 SingleQueue.host[12].wlan.radio radioMode:vector ETV
attr interpolationmode sample-hold
attr source radioModeChanged
attr title "Radio mode, vector"
vector 13 SingleQueue.host[13].wlan.radio radioMode:vector ETV
attr interpolationmode sample-hold
attr source radioModeChanged
attr title "Radio mode, vector"
vector 14 SingleQueue.host[14].wlan.radio radioMode:vector ETV
attr interpolationmode sample-hold
attr source radioModeChanged
attr title "Radio mode, vector"
vector 15 SingleQueue.host[15].wlan.radio radioMode:vector ETV
attr interpolationmode sample-hold
attr source radioModeChanged
attr title "Radio mode, vector"
vector 16 SingleQueue.host[16].wlan.radio radioMode:vector ETV
attr interpolationmode sample-hold
attr source radioModeChanged
attr title "Radio mode, vector"
vector 17 SingleQueue.host[17].wlan.radio radioMode:vector ETV
attr interpolationmode sample-hold
attr source radioModeChanged
attr title "Radio mode, vector"
vector 18 SingleQueue.host[18].wlan.radio radioMode:vector ETV
attr interpolationmode sample-hold
attr source radioModeChanged
attr title "Radio mode, vector"
vector 19 SingleQueue.host[19].wlan.radio radioMode:vector ETV
attr interpolationmode sample-hold
attr source radioModeChanged
attr title "Radio mode, vector"
vector 20 SingleQueue.host[20].wlan.radio radioMode:vector ETV
attr interpolationmode sample-hold
attr source radioModeChanged
attr title "Radio mode, vector"
vector 21 SingleQueue.host[21].wlan.radio radioMode:vector ETV
attr interpolationmode sample-hold
attr source radioModeChanged
attr title "Radio mode, vector"
vector 22 SingleQueue.host[22].wlan.radio radioMode:vector ETV
attr interpolationmode sample-hold
attr source radioModeChanged
attr title "Radio mode, vector"
vector 23 SingleQueue.host[23].wlan.radio radioMode:vector ETV
attr interpolationmode sample-hold
attr source radioModeChanged
attr title "Radio mode, vector"
vector 24 SingleQueue.host[24].wlan.radio radioMode:vector ETV
attr interpolationmode sample-hold
attr source radioModeChanged
attr title "Radio mode, vector"
vector 25 SingleQueue.host[25].wlan.radio radioMode:vector ETV
attr interpolationmode sample-hold
attr source radioModeChanged
attr title "Radio mode, vector"
vector 26 SingleQueue.host[26].wlan.radio radioMode:vector ETV
attr interpolationmode sample-hold
attr source radioModeChanged
attr title "Radio mode, vector"
vector 27 SingleQueue.host[27].wlan.radio radioMode:vector ETV
attr interpolationmode sample-hold
attr source radioModeChanged
attr title "Radio mode, vector"
vector 28 SingleQueue.host[28].wlan.radio radioMode:vector ETV
attr interpolationmode sample-hold
attr source radioModeChanged
attr title "Radio mode, vector"
vector 29 SingleQueue.host[29].wlan.radio radioMode:vector ETV
attr interpolationmode sample-hold
attr source radioModeChanged
attr title "Radio mode, vector"
vector 30 SingleQueue.host[30].wlan.radio radioMode:vector ETV
attr interpolationmode sample-hold
attr source radioModeChanged
attr title "Radio mode, vector"
vector 31 SingleQueue.host[31].wlan.radio radioMode:vector ETV
attr interpolationmode sample-hold
attr source radioModeChanged
attr title "Radio mode, vector"
vector 32 SingleQueue.host[32].wlan.radio radioMode:vector ETV
attr interpolationmode sample-hold
attr source radioModeChanged
attr title "Radio mode, vector"
vector 33 SingleQueue.host[33].wlan.radio radioMode:vector ETV
attr interpolationmode sample-hold
attr source radioModeChanged
attr title "Radio mode, vector"
vector 34 SingleQueue.host[34].wlan.radio radioMode:vector ETV
attr interpolationmode sample-hold
attr source radioModeChanged
attr title "Radio mode, vector"
vector 35 SingleQueue.host[35].wlan.radio radioMode:vector ETV
attr interpolationmode sample-hold
attr source radioModeChanged
attr title "Radio mode, vector"
vector 36 SingleQueue.host[36].wlan.radio radioMode:vector ETV
attr interpolationmode sample-hold
attr source radioModeChanged
attr title "Radio mode, vector"
vector 37 SingleQueue.host[37].wlan.radio radioMode:vector ETV
attr interpolationmode sample-hold
attr source radioModeChanged
attr title "Radio mode, vector"
vector 38 SingleQueue.host[38].wlan.radio radioMode:vector ETV
attr interpolationmode sample-hold
attr source radioModeChanged
attr title "Radio mode, vector"
vector 39 SingleQueue.host[39].wlan.radio radioMode:vector ETV
attr interpolationmode sample-hold
attr source radioModeChanged
attr title "Radio mode, vector"
vector 40 SingleQueue.host[40].wlan.radio radioMode:vector ETV
attr interpolationmode sample-hold
attr source radioModeChanged
attr title "Radio mode, vector"
vector 41 SingleQueue.host[41].wlan.radio radioMode:vector ETV
attr interpolationmode sample-hold
attr source radioModeChanged
attr title "Radio mode, vector"
vector 42 SingleQueue.host[42].wlan.radio radioMode:vector ETV
attr interpolationmode sample-hold
attr source radioModeChanged
attr title "Radio mode, vector"
vector 43 SingleQueue.host[43].wlan.radio radioMode:vector ETV
attr interpolationmode sample-hold
attr source radioModeChanged
attr title "Radio mode, vector"
vector 44 SingleQueue.host[44].wlan.radio radioMode:vector ETV
attr interpolationmode sample-hold
attr source radioModeChanged
attr title "Radio mode, vector"
vector 45 SingleQueue.host[45].wlan.radio radioMode:vector ETV
attr interpolationmode sample-hold
attr source radioModeChanged
attr title "Radio mode, vector"
vector 46 SingleQueue.host[46].wlan.radio radioMode:vector ETV
attr interpolationmode sample-hold
attr source radioModeChanged
attr title "Radio mode, vector"
vector 47 SingleQueue.host[47].wlan.radio radioMode:vector ETV
attr interpolationmode sample-hold
attr source radioModeChanged
attr title "Radio mode, vector"
vector 48 SingleQueue.host[48].wlan.radio radioMode:vector ETV
attr interpolationmode sample-hold
attr source radioModeChanged
attr title "Radio mode, vector"
vector 49 SingleQueue.host[49].wlan.radio radioMode:vector ETV
attr interpolationmode sample-hold
attr source radioModeChanged
attr title "Radio mode, vector"
vector 50 SingleQueue.host[50].wlan.radio radioMode:vector ETV
attr interpolationmode sample-hold
attr source radioModeChanged
attr title "Radio mode, vector"
vector 51 SingleQueue.host[51].wlan.radio radioMode:vector ETV
attr interpolationmode sample-hold
attr source radioModeChanged
attr title "Radio mode, vector"
vector 52 SingleQueue.host[52].wlan.radio radioMode:vector ETV
attr interpolationmode sample-hold
attr source radioModeChanged
attr title "Radio mode, vector"
vector 53 SingleQueue.host[53].wlan.radio radioMode:vector ETV
attr interpolationmode sample-hold
attr source radioModeChanged
attr title "Radio mode, vector"
vector 54 SingleQueue.host[54].wlan.radio radioMode:vector ETV
attr interpolationmode sample-hold
attr source radioModeChanged
attr title "Radio mode, vector"
vector 55 SingleQueue.host[55].wlan.radio radioMode:vector ETV
attr interpolationmode sample-hold
attr source radioModeChanged
attr title "Radio mode, vector"
vector 56 SingleQueue.host[56].wlan.radio radioMode:vector ETV
attr interpolationmode sample-hold
attr source radioModeChanged
attr title "Radio mode, vector"
vector 57 SingleQueue.host[57].wlan.radio radioMode:vector ETV
attr interpolationmode sample-hold
attr source radioModeChanged
attr title "Radio mode, vector"
vector 58 SingleQueue.host[58].wlan.radio radioMode:vector ETV
attr interpolationmode sample-hold
attr source radioModeChanged
attr title "Radio mode, vector"
vector 59 SingleQueue.host[59].wlan.radio radioMode:vector ETV
attr interpolationmode sample-hold
attr source radioModeChanged
attr title "Radio mode, vector"
vector 60 SingleQueue.host[60].wlan.radio radioMode:vector ETV
attr interpolationmode sample-hold
attr source radioModeChanged
attr title "Radio mode, vector"
vector 61 SingleQueue.host[61].wlan.radio radioMode:vector ETV
attr interpolationmode sample-hold
attr source radioModeChanged
attr title "Radio mode, vector"
vector 62 SingleQueue.host[62].wlan.radio radioMode:vector ETV
attr interpolationmode sample-hold
attr source radioModeChanged
attr title "Radio mode, vector"
vector 63 SingleQueue.host[63].wlan.radio radioMode:vector ETV
attr interpolationmode sample-hold
attr source radioModeChanged
attr title "Radio mode, vector"
vector 64 SingleQueue.host[64].wlan.radio radioMode:vector ETV
attr interpolationmode sample-hold
attr source radioModeChanged
attr title "Radio mode, vector"
vector 65 SingleQueue.host[65].wlan.radio radioMode:vector ETV
attr interpolationmode sample-hold
attr source radioModeChanged
attr title "Radio mode, vector"
vector 66 SingleQueue.host[66].wlan.radio radioMode:vector ETV
attr interpolationmode sample-hold
attr source radioModeChanged
attr title "Radio mode, vector"
vector 67 SingleQueue.host[67].wlan.radio radioMode:vector ETV
attr interpolationmode sample-hold
attr source radioModeChanged
attr title "Radio mode, vector"
vector 68 SingleQueue.host[68].wlan.radio radioMode:vector ETV
attr interpolationmode sample-hold
attr source radioModeChanged
attr title "Radio mode, vector"
vector 69 SingleQueue.host[69].wlan.radio radioMode:vector ETV
attr interpolationmode sample-hold
attr source radioModeChanged
attr title "Radio mode, vector"
vector 70 SingleQueue.host[70].wlan.radio radioMode:vector ETV
attr interpolationmode sample-hold
attr source radioModeChanged
attr title "Radio mode, vector"
vector 71 SingleQueue.host[71].wlan.radio radioMode:vector ETV
attr interpolationmode sample-hold
attr source radioModeChanged
attr title "Radio mode, vector"
vector 72 SingleQueue.host[72].wlan.radio radioMode:vector ETV
attr interpolationmode sample-hold
attr source radioModeChanged
attr title "Radio mode, vector"
vector 73 SingleQueue.host[73].wlan.radio radioMode:vector ETV
attr interpolationmode sample-hold
attr source radioModeChanged
attr title "Radio mode, vector"
vector 74 SingleQueue.host[74].wlan.radio radioMode:vector ETV
attr interpolationmode sample-hold
attr source radioModeChanged
attr title "Radio mode, vector"
vector 75 SingleQueue.host[75].wlan.radio radioMode:vector ETV
attr interpolationmode sample-hold
attr source radioModeChanged
attr title "Radio mode, vector"
vector 76 SingleQueue.host[76].wlan.radio radioMode:vector ETV
attr interpolationmode sample-hold
attr source radioModeChanged
attr title "Radio mode, vector"
vector 77 SingleQueue.host[77].wlan.radio radioMode:vector ETV
attr interpolationmode sample-hold
attr source radioModeChanged
attr title "Radio mode, vector"
vector 78 SingleQueue.host[78].wlan.radio radioMode:vector ETV
attr interpolationmode sample-hold
attr source radioModeChanged
attr title "Radio mode, vector"
vector 79 SingleQueue.host[79].wlan.radio radioMode:vector ETV
attr interpolationmode sample-hold
attr source radioModeChanged
attr title "Radio mode, vector"
vector 80 SingleQueue.host[80].wlan.radio radioMode:vector ETV
attr interpolationmode sample-hold
attr source radioModeChanged
attr title "Radio mode, vector"
vector 81 SingleQueue.host[81].wlan.radio radioMode:vector ETV
attr interpolationmode sample-hold
attr source radioModeChanged
attr title "Radio mode, vector"
vector 82 SingleQueue.host[82].wlan.radio radioMode:vector ETV
attr interpolationmode sample-hold
attr source radioModeChanged
attr title "Radio mode, vector"
vector 83 SingleQueue.host[83].wlan.radio radioMode:vector ETV
attr interpolationmode sample-hold
attr source radioModeChanged
attr title "Radio mode, vector"
vector 84 SingleQueue.host[84].wlan.radio radioMode:vector ETV
attr interpolationmode sample-hold
attr source radioModeChanged
attr title "Radio mode, vector"
vector 85 SingleQueue.host[85].wlan.radio radioMode:vector ETV
attr interpolationmode sample-hold
attr source radioModeChanged
attr title "Radio mode, vector"
vector 86 SingleQueue.host[86].wlan.radio radioMode:vector ETV
attr interpolationmode sample-hold
attr source radioModeChanged
attr title "Radio mode, vector"
vector 87 SingleQueue.host[87].wlan.radio radioMode:vector ETV
attr interpolationmode sample-hold
attr source radioModeChanged
attr title "Radio mode, vector"
vector 88 SingleQueue.host[88].wlan.radio radioMode:vector ETV
attr interpolationmode sample-hold
attr source radioModeChanged
attr title "Radio mode, vector"
vector 89 SingleQueue.host[89].wlan.radio radioMode:vector ETV
attr interpolationmode sample-hold
attr source radioModeChanged
attr title "Radio mode, vector"
vector 90 SingleQueue.host[90].wlan.radio radioMode:vector ETV
attr interpolationmode sample-hold
attr source radioModeChanged
attr title "Radio mode, vector"
vector 91 SingleQueue.host[91].wlan.radio radioMode:vector ETV
attr interpolationmode sample-hold
attr source radioModeChanged
attr title "Radio mode, vector"
vector 92 SingleQueue.host[92].wlan.radio radioMode:vector ETV
attr interpolationmode sample-hold
attr source radioModeChanged
attr title "Radio mode, vector"
vector 93 SingleQueue.host[93].wlan.radio radioMode:vector ETV
attr interpolationmode sample-hold
attr source radioModeChanged
attr title "Radio mode, vector"
vector 94 SingleQueue.host[94].wlan.radio radioMode:vector ETV
attr interpolationmode sample-hold
attr source radioModeChanged
attr title "Radio mode, vector"
vector 95 SingleQueue.host[95].wlan.radio radioMode:vector ETV
attr interpolationmode sample-hold
attr source radioModeChanged
attr title "Radio mode, vector"
vector 96 SingleQueue.host[96].wlan.radio radioMode:vector ETV
attr interpolationmode sample-hold
attr source radioModeChanged
attr title "Radio mode, vector"
vector 97 SingleQueue.host[97].wlan.radio radioMode:vector ETV
attr interpolationmode sample-hold
attr source radioModeChanged
attr title "Radio mode, vector"
vector 98 SingleQueue.host[98].wlan.radio radioMode:vector ETV
attr interpolationmode sample-hold
attr source radioModeChanged
attr title "Radio mode, vector"
vector 99 SingleQueue.host[99].wlan.radio radioMode:vector ETV
attr interpolationmode sample-hold
attr source radioModeChanged
attr title "Radio mode, vector"
vector 100 SingleQueue.host[100].wlan.radio radioMode:vector ETV
attr interpolationmode sample-hold
attr source radioModeChanged
attr title "Radio mode, vector"
vector 101 SingleQueue.host[101].wlan.radio radioMode:vector ETV
attr interpolationmode sample-hold
attr source radioModeChanged
attr title "Radio mode, vector"
vector 102 SingleQueue.host[102].wlan.radio radioMode:vector ETV
attr interpolationmode sample-hold
attr source radioModeChanged
attr title "Radio mode, vector"
vector 103 SingleQueue.host[103].wlan.radio radioMode:vector ETV
attr interpolationmode sample-hold
attr source radioModeChanged
attr title "Radio mode, vector"
vector 104 SingleQueue.host[104].wlan.radio radioMode:vector ETV
attr interpolationmode sample-hold
attr source radioModeChanged
attr title "Radio mode, vector"
vector 105 SingleQueue.host[105].wlan.radio radioMode:vector ETV
attr interpolationmode sample-hold
attr source radioModeChanged
attr title "Radio mode, vector"
vector 106 SingleQueue.host[106].wlan.radio radioMode:vector ETV
attr interpolationmode sample-hold
attr source radioModeChanged
attr title "Radio mode, vector"
vector 107 SingleQueue.host[107].wlan.radio radioMode:vector ETV
attr interpolationmode sample-hold
attr source radioModeChanged
attr title "Radio mode, vector"
vector 108 SingleQueue.host[108].wlan.radio radioMode:vector ETV
attr interpolationmode sample-hold
attr source radioModeChanged
attr title "Radio mode, vector"
vector 109 SingleQueue.host[109].wlan.radio radioMode:vector ETV
attr interpolationmode sample-hold
attr source radioModeChanged
attr title "Radio mode, vector"
vector 110 SingleQueue.host[110].wlan.radio radioMode:vector ETV
attr interpolationmode sample-hold
attr source radioModeChanged
attr title "Radio mode, vector"
vector 111 SingleQueue.host[111].wlan.radio radioMode:vector ETV
attr interpolationmode sample-hold
attr source radioModeChanged
attr title "Radio mode, vector"
vector 112 SingleQueue.host[112].wlan.radio radioMode:vector ETV
attr interpolationmode sample-hold
attr source radioModeChanged
attr title "Radio mode, vector"
vector 113 SingleQueue.host[113].wlan.radio radioMode:vector ETV
attr interpolationmode sample-hold
attr source radioModeChanged
attr title "Radio mode, vector"
vector 114 SingleQueue.host[114].wlan.radio radioMode:vector ETV
attr interpolationmode sample-hold
attr source radioModeChanged
attr title "Radio mode, vector"
vector 115 SingleQueue.host[115].wlan.radio radioMode:vector ETV
attr interpolationmode sample-hold
attr source radioModeChanged
attr title "Radio mode, vector"
vector 116 SingleQueue.host[116].wlan.radio radioMode:vector ETV
attr interpolationmode sample-hold
attr source radioModeChanged
attr title "Radio mode, vector"
vector 117 SingleQueue.host[117].wlan.radio radioMode:vector ETV
attr interpolationmode sample-hold
attr source radioModeChanged
attr title "Radio mode, vector"
vector 118 SingleQueue.host[118].wlan.radio radioMode:vector ETV
attr interpolationmode sample-hold
attr source radioModeChanged
attr title "Radio mode, vector"
vector 119 SingleQueue.host[119].wlan.radio radioMode:vector ETV
attr interpolationmode sample-hold
attr source radioModeChanged
attr title "Radio mode, vector"
vector 120 SingleQueue.host[120].wlan.radio radioMode:vector ETV
attr interpolationmode sample-hold
attr source radioModeChanged
attr title "Radio mode, vector"
vector 121 SingleQueue.host[121].wlan.radio radioMode:vector ETV
attr interpolationmode sample-hold
attr source radioModeChanged
attr title "Radio mode, vector"
vector 122 SingleQueue.host[122].wlan.radio radioMode:vector ETV
attr interpolationmode sample-hold
attr source radioModeChanged
attr title "Radio mode, vector"
vector 123 SingleQueue.host[123].wlan.radio radioMode:vector ETV
attr interpolationmode sample-hold
attr source radioModeChanged
attr title "Radio mode, vector"
vector 124 SingleQueue.host[124].wlan.radio radioMode:vector ETV
attr interpolationmode sample-hold
attr source radioModeChanged
attr title "Radio mode, vector"
vector 125 SingleQueue.host[125].wlan.radio radioMode:vector ETV
attr interpolationmode sample-hold
attr source radioModeChanged
attr title "Radio mode, vector"
vector 126 SingleQueue.host[126].wlan.radio radioMode:vector ETV
attr interpolationmode sample-hold
attr source radioModeChanged
attr title "Radio mode, vector"
vector 127 SingleQueue.host[127].wlan.radio radioMode:vector ETV
attr interpolationmode sample-hold
attr source radioModeChanged
attr title "Radio mode, vector"
vector 128 SingleQueue.host[128].wlan.radio radioMode:vector ETV
attr interpolationmode sample-hold
attr source radioModeChanged
attr title "Radio mode, vector"
vector 129 SingleQueue.host[129].wlan.radio radioMode:vector ETV
attr interpolationmode sample-hold
attr source radioModeChanged
attr title "Radio mode, vector"
vector 130 SingleQueue.host[130].wlan.radio radioMode:vector ETV
attr interpolationmode sample-hold
attr source radioModeChanged
attr title "Radio mode, vector"
vector 131 SingleQueue.host[131].wlan.radio radioMode:vector ETV
attr interpolationmode sample-hold
attr source radioModeChanged
attr title "Radio mode, vector"
vector 132 SingleQueue.host[132].wlan.radio radioMode:vector ETV
attr interpolationmode sample-hold
attr source radioModeChanged
attr title "Radio mode, vector"
vector 133 SingleQueue.host[133].wlan.radio radioMode:vector ETV
attr interpolationmode sample-hold
attr source radioModeChanged
attr title "Radio mode, vector"
vector 134 SingleQueue.host[134].wlan.radio radioMode:vector ETV
attr interpolationmode sample-hold
attr source radioModeChanged
attr title "Radio mode, vector"
vector 135 SingleQueue.host[135].wlan.radio radioMode:vector ETV
attr interpolationmode sample-hold
attr source radioModeChanged
attr title "Radio mode, vector"
vector 136 SingleQueue.host[136].wlan.radio radioMode:vector ETV
attr interpolationmode sample-hold
attr source radioModeChanged
attr title "Radio mode, vector"
vector 137 SingleQueue.host[137].wlan.radio radioMode:vector ETV
attr interpolationmode sample-hold
attr source radioModeChanged
attr title "Radio mode, vector"
vector 138 SingleQueue.host[138].wlan.radio radioMode:vector ETV
attr interpolationmode sample-hold
attr source radioModeChanged
attr title "Radio mode, vector"
vector 139 SingleQueue.host[139].wlan.radio radioMode:vector ETV
attr interpolationmode sample-hold
attr source radioModeChanged
attr title "Radio mode, vector"
vector 140 SingleQueue.host[140].wlan.radio radioMode:vector ETV
attr interpolationmode sample-hold
attr source radioModeChanged
attr title "Radio mode, vector"
vector 141 SingleQueue.host[141].wlan.radio radioMode:vector ETV
attr interpolationmode sample-hold
attr source radioModeChanged
attr title "Radio mode, vector"
vector 142 SingleQueue.host[142].wlan.radio radioMode:vector ETV
attr interpolationmode sample-hold
attr source radioModeChanged
attr title "Radio mode, vector"
vector 143 SingleQueue.host[143].wlan.radio radioMode:vector ETV
attr interpolationmode sample-hold
attr source radioModeChanged
attr title "Radio mode, vector"
vector 144 SingleQueue.host[144].wlan.radio radioMode:vector ETV
attr interpolationmode sample-hold
attr source radioModeChanged
attr title "Radio mode, vector"
vector 145 SingleQueue.host[145].wlan.radio radioMode:vector ETV
attr interpolationmode sample-hold
attr source radioModeChanged
attr title "Radio mode, vector"
vector 146 SingleQueue.host[146].wlan.radio radioMode:vector ETV
attr interpolationmode sample-hold
attr source radioModeChanged
attr title "Radio mode, vector"
vector 147 SingleQueue.host[147].wlan.radio radioMode:vector ETV
attr interpolationmode sample-hold
attr source radioModeChanged
attr title "Radio mode, vector"
vector 148 SingleQueue.host[148].wlan.radio radioMode:vector ETV
attr interpolationmode sample-hold
attr source radioModeChanged
attr title "Radio mode, vector"
vector 149 SingleQueue.host[149].wlan.radio radioMode:vector ETV
attr interpolationmode sample-hold
attr source radioModeChanged
attr title "Radio mode, vector"
vector 150 SingleQueue.host[150].wlan.radio radioMode:vector ETV
attr interpolationmode sample-hold
attr source radioModeChanged
attr title "Radio mode, vector"
vector 151 SingleQueue.host[151].wlan.radio radioMode:vector ETV
attr interpolationmode sample-hold
attr source radioModeChanged
attr title "Radio mode, vector"
vector 152 SingleQueue.host[152].wlan.radio radioMode:vector ETV
attr interpolationmode sample-hold
attr source radioModeChanged
attr title "Radio mode, vector"
vector 153 SingleQueue.host[153].wlan.radio radioMode:vector ETV
attr interpolationmode sample-hold
attr source radioModeChanged
attr title "Radio mode, vector"
vector 154 SingleQueue.host[154].wlan.radio radioMode:vector ETV
attr interpolationmode sample-hold
attr source radioModeChanged
attr title "Radio mode, vector"
vector 155 SingleQueue.host[155].wlan.radio radioMode:vector ETV
attr interpolationmode sample-hold
attr source radioModeChanged
attr title "Radio mode, vector"
vector 156 SingleQueue.host[156].wlan.radio radioMode:vector ETV
attr interpolationmode sample-hold
attr source radioModeChanged
attr title "Radio mode, vector"
vector 157 SingleQueue.host[157].wlan.radio radioMode:vector ETV
attr interpolationmode sample-hold
attr source radioModeChanged
attr title "Radio mode, vector"
vector 158 SingleQueue.host[158].wlan.radio radioMode:vector ETV
attr interpolationmode sample-hold
attr source radioModeChanged
attr title "Radio mode, vector"
vector 159 SingleQueue.host[159].wlan.radio radioMode:vector ETV
attr interpolationmode sample-hold
attr source radioModeChanged
attr title "Radio mode, vector"
vector 160 SingleQueue.host[160].wlan.radio radioMode:vector ETV
attr interpolationmode sample-hold
attr source radioModeChanged
attr title "Radio mode, vector"
vector 161 SingleQueue.host[161].wlan.radio radioMode:vector ETV
attr interpolationmode sample-hold
attr source radioModeChanged
attr title "Radio mode, vector"
vector 162 SingleQueue.host[162].wlan.radio radioMode:vector ETV
attr interpolationmode sample-hold
attr source radioModeChanged
attr title "Radio mode, vector"
vector 163 SingleQueue.host[163].wlan.radio radioMode:vector ETV
attr interpolationmode sample-hold
attr source radioModeChanged
attr title "Radio mode, vector"
vector 164 SingleQueue.host[164].wlan.radio radioMode:vector ETV
attr interpolationmode sample-hold
attr source radioModeChanged
attr title "Radio mode, vector"
vector 165 SingleQueue.host[165].wlan.radio radioMode:vector ETV
attr interpolationmode sample-hold
attr source radioModeChanged
attr title "Radio mode, vector"
vector 166 SingleQueue.host[166].wlan.radio radioMode:vector ETV
attr interpolationmode sample-hold
attr source radioModeChanged
attr title "Radio mode, vector"
vector 167 SingleQueue.host[167].wlan.radio radioMode:vector ETV
attr interpolationmode sample-hold
attr source radioModeChanged
attr title "Radio mode, vector"
vector 168 SingleQueue.host[168].wlan.radio radioMode:vector ETV
attr interpolationmode sample-hold
attr source radioModeChanged
attr title "Radio mode, vector"
vector 169 SingleQueue.host[169].wlan.radio radioMode:vector ETV
attr interpolationmode sample-hold
attr source radioModeChanged
attr title "Radio mode, vector"
vector 170 SingleQueue.host[170].wlan.radio radioMode:vector ETV
attr interpolationmode sample-hold
attr source radioModeChanged
attr title "Radio mode, vector"
vector 171 SingleQueue.host[171].wlan.radio radioMode:vector ETV
attr interpolationmode sample-hold
attr source radioModeChanged
attr title "Radio mode, vector"
vector 172 SingleQueue.host[172].wlan.radio radioMode:vector ETV
attr interpolationmode sample-hold
attr source radioModeChanged
attr title "Radio mode, vector"
vector 173 SingleQueue.host[173].wlan.radio radioMode:vector ETV
attr interpolationmode sample-hold
attr source radioModeChanged
attr title "Radio mode, vector"
vector 174 SingleQueue.host[174].wlan.radio radioMode:vector ETV
attr interpolationmode sample-hold
attr source radioModeChanged
attr title "Radio mode, vector"
vector 175 SingleQueue.host[175].wlan.radio radioMode:vector ETV
attr interpolationmode sample-hold
attr source radioModeChanged
attr title "Radio mode, vector"
vector 176 SingleQueue.host[176].wlan.radio radioMode:vector ETV
attr interpolationmode sample-hold
attr source radioModeChanged
attr title "Radio mode, vector"
vector 177 SingleQueue.host[177].wlan.radio radioMode:vector ETV
attr interpolationmode sample-hold
attr source radioModeChanged
attr title "Radio mode, vector"
vector 178 SingleQueue.host[178].wlan.radio radioMode:vector ETV
attr interpolationmode sample-hold
attr source radioModeChanged
attr title "Radio mode, vector"
vector 179 SingleQueue.host[179].wlan.radio radioMode:vector ETV
attr interpolationmode sample-hold
attr source radioModeChanged
attr title "Radio mode, vector"
vector 180 SingleQueue.host[180].wlan.radio radioMode:vector ETV
attr interpolationmode sample-hold
attr source radioModeChanged
attr title "Radio mode, vector"
vector 181 SingleQueue.host[181].wlan.radio radioMode:vector ETV
attr interpolationmode sample-hold
attr source radioModeChanged
attr title "Radio mode, vector"
vector 182 SingleQueue.host[182].wlan.radio radioMode:vector ETV
attr interpolationmode sample-hold
attr source radioModeChanged
attr title "Radio mode, vector"
vector 183 SingleQueue.host[183].wlan.radio radioMode:vector ETV
attr interpolationmode sample-hold
attr source radioModeChanged
attr title "Radio mode, vector"
vector 184 SingleQueue.host[184].wlan.radio radioMode:vector ETV
attr interpolationmode sample-hold
attr source radioModeChanged
attr title "Radio mode, vector"
vector 185 SingleQueue.host[185].wlan.radio radioMode:vector ETV
attr interpolationmode sample-hold
attr source radioModeChanged
attr title "Radio mode, vector"
vector 186 SingleQueue.host[186].wlan.radio radioMode:vector ETV
attr interpolationmode sample-hold
attr source radioModeChanged
attr title "Radio mode, vector"
vector 187 SingleQueue.host[187].wlan.radio radioMode:vector ETV
attr interpolationmode sample-hold
attr source radioModeChanged
attr title "Radio mode, vector"
vector 188 SingleQueue.host[188].wlan.radio radioMode:vector ETV
attr interpolationmode sample-hold
attr source radioModeChanged
attr title "Radio mode, vector"
vector 189 SingleQueue.host[189].wlan.radio radioMode:vector ETV
attr interpolationmode sample-hold
attr source radioModeChanged
attr title "Radio mode, vector"
vector 190 SingleQueue.host[190].wlan.radio radioMode:vector ETV
attr interpolationmode sample-hold
attr source radioModeChanged
attr title "Radio mode, vector"
vector 191 SingleQueue.host[191].wlan.radio radioMode:vector ETV
attr interpolationmode sample-hold
attr source radioModeChanged
attr title "Radio mode, vector"
vector 192 SingleQueue.host[192].wlan.radio radioMode:vector ETV
attr interpolationmode sample-hold
attr source radioModeChanged
attr title "Radio mode, vector"
vector 193 SingleQueue.host[193].wlan.radio radioMode:vector ETV
attr interpolationmode sample-hold
attr source radioModeChanged
attr title "Radio mode, vector"
vector 194 SingleQueue.host[194].wlan.radio radioMode:vector ETV
attr interpolationmode sample-hold
attr source radioModeChanged
attr title "Radio mode, vector"
vector 195 SingleQueue.host[195].wlan.radio radioMode:vector ETV
attr interpolationmode sample-hold
attr source radioModeChanged
attr title "Radio mode, vector"
vector 196 SingleQueue.host[196].wlan.radio radioMode:vector ETV
attr interpolationmode sample-hold
attr source radioModeChanged
attr title "Radio mode, vector"
vector 197 SingleQueue.host[197].wlan.radio radioMode:vector ETV
attr interpolationmode sample-hold
attr source radioModeChanged
attr title "Radio mode, vector"
vector 198 SingleQueue.host[198].wlan.radio radioMode:vector ETV
attr interpolationmode sample-hold
attr source radioModeChanged
attr title "Radio mode, vector"
vector 199 SingleQueue.host[199].wlan.radio radioMode:vector ETV
attr interpolationmode sample-hold
attr source radioModeChanged
attr title "Radio mode, vector"
vector 200 SingleQueue.host[200].wlan.radio radioMode:vector ETV
attr interpolationmode sample-hold
attr source radioModeChanged
attr title "Radio mode, vector"
vector 201 SingleQueue.host[201].wlan.radio radioMode:vector ETV
attr interpolationmode sample-hold
attr source radioModeChanged
attr title "Radio mode, vector"
vector 202 SingleQueue.host[202].wlan.radio radioMode:vector ETV
attr interpolationmode sample-hold
attr source radioModeChanged
attr title "Radio mode, vector"
vector 203 SingleQueue.host[203].wlan.radio radioMode:vector ETV
attr interpolationmode sample-hold
attr source radioModeChanged
attr title "Radio mode, vector"
vector 204 SingleQueue.host[204].wlan.radio radioMode:vector ETV
attr interpolationmode sample-hold
attr source radioModeChanged
attr title "Radio mode, vector"
vector 205 SingleQueue.host[205].wlan.radio radioMode:vector ETV
attr interpolationmode sample-hold
attr source radioModeChanged
attr title "Radio mode, vector"
vector 206 SingleQueue.host[206].wlan.radio radioMode:vector ETV
attr interpolationmode sample-hold
attr source radioModeChanged
attr title "Radio mode, vector"
vector 207 SingleQueue.host[207].wlan.radio radioMode:vector ETV
attr interpolationmode sample-hold
attr source radioModeChanged
attr title "Radio mode, vector"
vector 208 SingleQueue.host[208].wlan.radio radioMode:vector ETV
attr interpolationmode sample-hold
attr source radioModeChanged
attr title "Radio mode, vector"
vector 209 SingleQueue.host[209].wlan.radio radioMode:vector ETV
attr interpolationmode sample-hold
attr source radioModeChanged
attr title "Radio mode, vector"
vector 210 SingleQueue.host[210].wlan.radio radioMode:vector ETV
attr interpolationmode sample-hold
attr source radioModeChanged
attr title "Radio mode, vector"
vector 211 SingleQueue.host[211].wlan.radio radioMode:vector ETV
attr interpolationmode sample-hold
attr source radioModeChanged
attr title "Radio mode, vector"
vector 212 SingleQueue.host[212].wlan.radio radioMode:vector ETV
attr interpolationmode sample-hold
attr source radioModeChanged
attr title "Radio mode, vector"
vector 213 SingleQueue.host[213].wlan.radio radioMode:vector ETV
attr interpolationmode sample-hold
attr source radioModeChanged
attr title "Radio mode, vector"
vector 214 SingleQueue.host[214].wlan.radio radioMode:vector ETV
attr interpolationmode sample-hold
attr source radioModeChanged
attr title "Radio mode, vector"
vector 215 SingleQueue.host[215].wlan.radio radioMode:vector ETV
attr interpolationmode sample-hold
attr source radioModeChanged
attr title "Radio mode, vector"
vector 216 SingleQueue.host[216].wlan.radio radioMode:vector ETV
attr interpolationmode sample-hold
attr source radioModeChanged
attr title "Radio mode, vector"
vector 217 SingleQueue.host[217].wlan.radio radioMode:vector ETV
attr interpolationmode sample-hold
attr source radioModeChanged
attr title "Radio mode, vector"
vector 218 SingleQueue.host[218].wlan.radio radioMode:vector ETV
attr interpolationmode sample-hold
attr source radioModeChanged
attr title "Radio mode, vector"
vector 219 SingleQueue.host[219].wlan.radio radioMode:vector ETV
attr interpolationmode sample-hold
attr source radioModeChanged
attr title "Radio mode, vector"
vector 220 SingleQueue.host[220].wlan.radio radioMode:vector ETV
attr interpolationmode sample-hold
attr source radioModeChanged
attr title "Radio mode, vector"
vector 221 SingleQueue.host[221].wlan.radio radioMode:vector ETV
attr interpolationmode sample-hold
attr source radioModeChanged
attr title "Radio mode, vector"
vector 222 SingleQueue.host[222].wlan.radio radioMode:vector ETV
attr interpolationmode sample-hold
attr source radioModeChanged
attr title "Radio mode, vector"
vector 223 SingleQueue.host[223].wlan.radio radioMode:vector ETV
attr interpolationmode sample-hold
attr source radioModeChanged
attr title "Radio mode, vector"
vector 224 SingleQueue.host[224].wlan.radio radioMode:vector ETV
attr interpolationmode sample-hold
attr source radioModeChanged
attr title "Radio mode, vector"
vector 225 SingleQueue.host[225].wlan.radio radioMode:vector ETV
attr interpolationmode sample-hold
attr source radioModeChanged
attr title "Radio mode, vector"
vector 226 SingleQueue.host[226].wlan.radio radioMode:vector ETV
attr interpolationmode sample-hold
attr source radioModeChanged
attr title "Radio mode, vector"
vector 227 SingleQueue.host[227].wlan.radio radioMode:vector ETV
attr interpolationmode sample-hold
attr source radioModeChanged
attr title "Radio mode, vector"
vector 228 SingleQueue.host[228].wlan.radio radioMode:vector ETV
attr interpolationmode sample-hold
attr source radioModeChanged
attr title "Radio mode, vector"
vector 229 SingleQueue.host[229].wlan.radio radioMode:vector ETV
attr interpolationmode sample-hold
attr source radioModeChanged
attr title "Radio mode, vector"
vector 230 SingleQueue.host[230].wlan.radio radioMode:vector ETV
attr interpolationmode sample-hold
attr source radioModeChanged
attr title "Radio mode, vector"
vector 231 SingleQueue.host[231].wlan.radio radioMode:vector ETV
attr interpolationmode sample-hold
attr source radioModeChanged
attr title "Radio mode, vector"
vector 232 SingleQueue.host[232].wlan.radio radioMode:vector ETV
attr interpolationmode sample-hold
attr source radioModeChanged
attr title "Radio mode, vector"
vector 233 SingleQueue.host[233].wlan.radio radioMode:vector ETV
attr interpolationmode sample-hold
attr source radioModeChanged
attr title "Radio mode, vector"
vector 234 SingleQueue.host[234].wlan.radio radioMode:vector ETV
attr interpolationmode sample-hold
attr source radioModeChanged
attr title "Radio mode, vector"
vector 235 SingleQueue.host[235].wlan.radio radioMode:vector ETV
attr interpolationmode sample-hold
attr source radioModeChanged
attr title "Radio mode, vector"
vector 236 SingleQueue.host[236].wlan.radio radioMode:vector ETV
attr interpolationmode sample-hold
attr source radioModeChanged
attr title "Radio mode, vector"
vector 237 SingleQueue.host[237].wlan.radio radioMode:vector ETV
attr interpolationmode sample-hold
attr source radioModeChanged
attr title "Radio mode, vector"
vector 238 SingleQueue.host[238].wlan.radio radioMode:vector ETV
attr interpolationmode sample-hold
attr source radioModeChanged
attr title "Radio mode, vector"
vector 239 SingleQueue.host[239].wlan.radio radioMode:vector ETV
attr interpolationmode sample-hold
attr source radioModeChanged
attr title "Radio mode, vector"
vector 240 SingleQueue.host[240].wlan.radio radioMode:vector ETV
attr interpolationmode sample-hold
attr source radioModeChanged
attr title "Radio mode, vector"
vector 241 SingleQueue.host[241].wlan.radio radioMode:vector ETV
attr interpolationmode sample-hold
attr source radioModeChanged
attr title "Radio mode, vector"
vector 242 SingleQueue.host[242].wlan.radio radioMode:vector ETV
attr interpolationmode sample-hold
attr source radioModeChanged
attr title "Radio mode, vector"
vector 243 SingleQueue.host[243].wlan.radio radioMode:vector ETV
attr interpolationmode sample-hold
attr source radioModeChanged
attr title "Radio mode, vector"
vector 244 SingleQueue.host[244].wlan.radio radioMode:vector ETV
attr interpolationmode sample-hold
attr source radioModeChanged
attr title "Radio mode, vector"
vector 245 SingleQueue.host[245].wlan.radio radioMode:vector ETV
attr interpolationmode sample-hold
attr source radioModeChanged
attr title "Radio mode, vector"
vector 246 SingleQueue.host[246].wlan.radio radioMode:vector ETV
attr interpolationmode sample-hold
attr source radioModeChanged
attr title "Radio mode, vector"
vector 247 SingleQueue.host[247].wlan.radio radioMode:vector ETV
attr interpolationmode sample-hold
attr source radioModeChanged
attr title "Radio mode, vector"
vector 248 SingleQueue.host[248].wlan.radio radioMode:vector ETV
attr interpolationmode sample-hold
attr source radioModeChanged
attr title "Radio mode, vector"
vector 249 SingleQueue.host[249].wlan.radio radioMode:vector ETV
attr interpolationmode sample-hold
attr source radioModeChanged
attr title "Radio mode, vector"
vector 250 SingleQueue.host[250].wlan.radio radioMode:vector ETV
attr interpolationmode sample-hold
attr source radioModeChanged
attr title "Radio mode, vector"
vector 251 SingleQueue.host[251].wlan.radio radioMode:vector ETV
attr interpolationmode sample-hold
attr source radioModeChanged
attr title "Radio mode, vector"
vector 252 SingleQueue.host[252].wlan.radio radioMode:vector ETV
attr interpolationmode sample-hold
attr source radioModeChanged
attr title "Radio mode, vector"
vector 253 SingleQueue.host[253].wlan.radio radioMode:vector ETV
attr interpolationmode sample-hold
attr source radioModeChanged
attr title "Radio mode, vector"
vector 254 SingleQueue.host[254].wlan.radio radioMode:vector ETV
attr interpolationmode sample-hold
attr source radioModeChanged
attr title "Radio mode, vector"
vector 255 SingleQueue.host[255].wlan.radio radioMode:vector ETV
attr interpolationmode sample-hold
attr source radioModeChanged
attr title "Radio mode, vector"
vector 256 SingleQueue.host[256].wlan.radio radioMode:vector ETV
attr interpolationmode sample-hold
attr source radioModeChanged
attr title "Radio mode, vector"
vector 257 SingleQueue.host[257].wlan.radio radioMode:vector ETV
attr interpolationmode sample-hold
attr source radioModeChanged
attr title "Radio mode, vector"
vector 258 SingleQueue.host[258].wlan.radio radioMode:vector ETV
attr interpolationmode sample-hold
attr source radioModeChanged
attr title "Radio mode, vector"
vector 259 SingleQueue.host[259].wlan.radio radioMode:vector ETV
attr interpolationmode sample-hold
attr source radioModeChanged
attr title "Radio mode, vector"
vector 260 SingleQueue.host[260].wlan.radio radioMode:vector ETV
attr interpolationmode sample-hold
attr source radioModeChanged
attr title "Radio mode, vector"
vector 261 SingleQueue.host[261].wlan.radio radioMode:vector ETV
attr interpolationmode sample-hold
attr source radioModeChanged
attr title "Radio mode, vector"
vector 262 SingleQueue.host[262].wlan.radio radioMode:vector ETV
attr interpolationmode sample-hold
attr source radioModeChanged
attr title "Radio mode, vector"
vector 263 SingleQueue.host[263].wlan.radio radioMode:vector ETV
attr interpolationmode sample-hold
attr source radioModeChanged
attr title "Radio mode, vector"
vector 264 SingleQueue.host[264].wlan.radio radioMode:vector ETV
attr interpolationmode sample-hold
attr source radioModeChanged
attr title "Radio mode, vector"
vector 265 SingleQueue.host[265].wlan.radio radioMode:vector ETV
attr interpolationmode sample-hold
attr source radioModeChanged
attr title "Radio mode, vector"
vector 266 SingleQueue.host[266].wlan.radio radioMode:vector ETV
attr interpolationmode sample-hold
attr source radioModeChanged
attr title "Radio mode, vector"
vector 267 SingleQueue.host[267].wlan.radio radioMode:vector ETV
attr interpolationmode sample-hold
attr source radioModeChanged
attr title "Radio mode, vector"
vector 268 SingleQueue.host[268].wlan.radio radioMode:vector ETV
attr interpolationmode sample-hold
attr source radioModeChanged
attr title "Radio mode, vector"
vector 269 SingleQueue.host[269].wlan.radio radioMode:vector ETV
attr interpolationmode sample-hold
attr source radioModeChanged
attr title "Radio mode, vector"
vector 270 SingleQueue.host[270].wlan.radio radioMode:vector ETV
attr interpolationmode sample-hold
attr source radioModeChanged
attr title "Radio mode, vector"
vector 271 SingleQueue.host[271].wlan.radio radioMode:vector ETV
attr interpolationmode sample-hold
attr source radioModeChanged
attr title "Radio mode, vector"
vector 272 SingleQueue.host[272].wlan.radio radioMode:vector ETV
attr interpolationmode sample-hold
attr source radioModeChanged
attr title "Radio mode, vector"
vector 273 SingleQueue.host[273].wlan.radio radioMode:vector ETV
attr interpolationmode sample-hold
attr source radioModeChanged
attr title "Radio mode, vector"
vector 274 SingleQueue.host[274].wlan.radio radioMode:vector ETV
attr interpolationmode sample-hold
attr source radioModeChanged
attr title "Radio mode, vector"
vector 275 SingleQueue.host[275].wlan.radio radioMode:vector ETV
attr interpolationmode sample-hold
attr source radioModeChanged
attr title "Radio mode, vector"
vector 276 SingleQueue.host[276].wlan.radio radioMode:vector ETV
attr interpolationmode sample-hold
attr source radioModeChanged
attr title "Radio mode, vector"
vector 277 SingleQueue.host[277].wlan.radio radioMode:vector ETV
attr interpolationmode sample-hold
attr source radioModeChanged
attr title "Radio mode, vector"
vector 278 SingleQueue.host[278].wlan.radio radioMode:vector ETV
attr interpolationmode sample-hold
attr source radioModeChanged
attr title "Radio mode, vector"
vector 279 SingleQueue.host[279].wlan.radio radioMode:vector ETV
attr interpolationmode sample-hold
attr source radioModeChanged
attr title "Radio mode, vector"
vector 280 SingleQueue.host[280].wlan.radio radioMode:vector ETV
attr interpolationmode sample-hold
attr source radioModeChanged
attr title "Radio mode, vector"
vector 281 SingleQueue.host[281].wlan.radio radioMode:vector ETV
attr interpolationmode sample-hold
attr source radioModeChanged
attr title "Radio mode, vector"
vector 282 SingleQueue.host[282].wlan.radio radioMode:vector ETV
attr interpolationmode sample-hold
attr source radioModeChanged
attr title "Radio mode, vector"
vector 283 SingleQueue.host[283].wlan.radio radioMode:vector ETV
attr interpolationmode sample-hold
attr source radioModeChanged
attr title "Radio mode, vector"
vector 284 SingleQueue.host[284].wlan.radio radioMode:vector ETV
attr interpolationmode sample-hold
attr source radioModeChanged
attr title "Radio mode, vector"
vector 285 SingleQueue.host[285].wlan.radio radioMode:vector ETV
attr interpolationmode sample-hold
attr source radioModeChanged
attr title "Radio mode, vector"
vector 286 SingleQueue.host[286].wlan.radio radioMode:vector ETV
attr interpolationmode sample-hold
attr source radioModeChanged
attr title "Radio mode, vector"
vector 287 SingleQueue.host[287].wlan.radio radioMode:vector ETV
attr interpolationmode sample-hold
attr source radioModeChanged
attr title "Radio mode, vector"
vector 288 SingleQueue.host[288].wlan.radio radioMode:vector ETV
attr interpolationmode sample-hold
attr source radioModeChanged
attr title "Radio mode, vector"
vector 289 SingleQueue.host[289].wlan.radio radioMode:vector ETV
attr interpolationmode sample-hold
attr source radioModeChanged
attr title "Radio mode, vector"
vector 290 SingleQueue.host[290].wlan.radio radioMode:vector ETV
attr interpolationmode sample-hold
attr source radioModeChanged
attr title "Radio mode, vector"
vector 291 SingleQueue.host[291].wlan.radio radioMode:vector ETV
attr interpolationmode sample-hold
attr source radioModeChanged
attr title "Radio mode, vector"
vector 292 SingleQueue.host[292].wlan.radio radioMode:vector ETV
attr interpolationmode sample-hold
attr source radioModeChanged
attr title "Radio mode, vector"
vector 293 SingleQueue.host[293].wlan.radio radioMode:vector ETV
attr interpolationmode sample-hold
attr source radioModeChanged
attr title "Radio mode, vector"
vector 294 SingleQueue.host[294].wlan.radio radioMode:vector ETV
attr interpolationmode sample-hold
attr source radioModeChanged
attr title "Radio mode, vector"
vector 295 SingleQueue.host[295].wlan.radio radioMode:vector ETV
attr interpolationmode sample-hold
attr source radioModeChanged
attr title "Radio mode, vector"
vector 296 SingleQueue.host[296].wlan.radio radioMode:vector ETV
attr interpolationmode sample-hold
attr source radioModeChanged
attr title "Radio mode, vector"
vector 297 SingleQueue.host[297].wlan.radio radioMode:vector ETV
attr interpolationmode sample-hold
attr source radioModeChanged
attr title "Radio mode, vector"
vector 298 SingleQueue.host[298].wlan.radio radioMode:vector ETV
attr interpolationmode sample-hold
attr source radioModeChanged
attr title "Radio mode, vector"
vector 299 SingleQueue.host[299].wlan.radio radioMode:vector ETV
attr interpolationmode sample-hold
attr source radioModeChanged
attr title "Radio mode, vector"
vector 300 SingleQueue.host[300].wlan.radio radioMode:vector ETV
attr interpolationmode sample-hold
attr source radioModeChanged
attr title "Radio mode, vector"
vector 301 SingleQueue.host[301].wlan.radio radioMode:vector ETV
attr interpolationmode sample-hold
attr source radioModeChanged
attr title "Radio mode, vector"
vector 302 SingleQueue.host[302].wlan.radio radioMode:vector ETV
attr interpolationmode sample-hold
attr source radioModeChanged
attr title "Radio mode, vector"
vector 303 SingleQueue.host[303].wlan.radio radioMode:vector ETV
attr interpolationmode sample-hold
attr source radioModeChanged
attr title "Radio mode, vector"
vector 304 SingleQueue.host[304].wlan.radio radioMode:vector ETV
attr interpolationmode sample-hold
attr source radioModeChanged
attr title "Radio mode, vector"
vector 305 SingleQueue.host[305].wlan.radio radioMode:vector ETV
attr interpolationmode sample-hold
attr source radioModeChanged
attr title "Radio mode, vector"
vector 306 SingleQueue.host[306].wlan.radio radioMode:vector ETV
attr interpolationmode sample-hold
attr source radioModeChanged
attr title "Radio mode, vector"
vector 307 SingleQueue.host[307].wlan.radio radioMode:vector ETV
attr interpolationmode sample-hold
attr source radioModeChanged
attr title "Radio mode, vector"
vector 308 SingleQueue.host[308].wlan.radio radioMode:vector ETV
attr interpolationmode sample-hold
attr source radioModeChanged
attr title "Radio mode, vector"
vector 309 SingleQueue.host[309].wlan.radio radioMode:vector ETV
attr interpolationmode sample-hold
attr source radioModeChanged
attr title "Radio mode, vector"
vector 310 SingleQueue.host[310].wlan.radio radioMode:vector ETV
attr interpolationmode sample-hold
attr source radioModeChanged
attr title "Radio mode, vector"
vector 311 SingleQueue.host[311].wlan.radio radioMode:vector ETV
attr interpolationmode sample-hold
attr source radioModeChanged
attr title "Radio mode, vector"
vector 312 SingleQueue.host[312].wlan.radio radioMode:vector ETV
attr interpolationmode sample-hold
attr source radioModeChanged
attr title "Radio mode, vector"
vector 313 SingleQueue.host[313].wlan.radio radioMode:vector ETV
attr interpolationmode sample-hold
attr source radioModeChanged
attr title "Radio mode, vector"
vector 314 SingleQueue.host[314].wlan.radio radioMode:vector ETV
attr interpolationmode sample-hold
attr source radioModeChanged
attr title "Radio mode, vector"
vector 315 SingleQueue.host[315].wlan.radio radioMode:vector ETV
attr interpolationmode sample-hold
attr source radioModeChanged
attr title "Radio mode, vector"
vector 316 SingleQueue.host[316].wlan.radio radioMode:vector ETV
attr interpolationmode sample-hold
attr source radioModeChanged
attr title "Radio mode, vector"
vector 317 SingleQueue.host[317].wlan.radio radioMode:vector ETV
attr interpolationmode sample-hold
attr source radioModeChanged
attr title "Radio mode, vector"
vector 318 SingleQueue.host[318].wlan.radio radioMode:vector ETV
attr interpolationmode sample-hold
attr source radioModeChanged
attr title "Radio mode, vector"
vector 319 SingleQueue.host[319].wlan.radio radioMode:vector ETV
attr interpolationmode sample-hold
attr source radioModeChanged
attr title "Radio mode, vector"
vector 320 SingleQueue.host[320].wlan.radio radioMode:vector ETV
attr interpolationmode sample-hold
attr source radioModeChanged
attr title "Radio mode, vector"
vector 321 SingleQueue.host[321].wlan.radio radioMode:vector ETV
attr interpolationmode sample-hold
attr source radioModeChanged
attr title "Radio mode, vector"
vector 322 SingleQueue.host[322].wlan.radio radioMode:vector ETV
attr interpolationmode sample-hold
attr source radioModeChanged
attr title "Radio mode, vector"
vector 323 SingleQueue.host[323].wlan.radio radioMode:vector ETV
attr interpolationmode sample-hold
attr source radioModeChanged
attr title "Radio mode, vector"
vector 324 SingleQueue.host[324].wlan.radio radioMode:vector ETV
attr interpolationmode sample-hold
attr source radioModeChanged
attr title "Radio mode, vector"
vector 325 SingleQueue.host[325].wlan.radio radioMode:vector ETV
attr interpolationmode sample-hold
attr source radioModeChanged
attr title "Radio mode, vector"
vector 326 SingleQueue.host[326].wlan.radio radioMode:vector ETV
attr interpolationmode sample-hold
attr source radioModeChanged
attr title "Radio mode, vector"
vector 327 SingleQueue.host[327].wlan.radio radioMode:vector ETV
attr interpolationmode sample-hold
attr source radioModeChanged
attr title "Radio mode, vector"
vector 328 SingleQueue.host[328].wlan.radio radioMode:vector ETV
attr interpolationmode sample-hold
attr source radioModeChanged
attr title "Radio mode, vector"
vector 329 SingleQueue.host[329].wlan.radio radioMode:vector ETV
attr interpolationmode sample-hold
attr source radioModeChanged
attr title "Radio mode, vector"
vector 330 SingleQueue.host[330].wlan.radio radioMode:vector ETV
attr interpolationmode sample-hold
attr source radioModeChanged
attr title "Radio mode, vector"
vector 331 SingleQueue.host[331].wlan.radio radioMode:vector ETV
attr interpolationmode sample-hold
attr source radioModeChanged
attr title "Radio mode, vector"
vector 332 SingleQueue.host[332].wlan.radio radioMode:vector ETV
attr interpolationmode sample-hold
attr source radioModeChanged
attr title "Radio mode, vector"
vector 333 SingleQueue.host[333].wlan.radio radioMode:vector ETV
attr interpolationmode sample-hold
attr source radioModeChanged
attr title "Radio mode, vector"
vector 334 SingleQueue.host[334].wlan.radio radioMode:vector ETV
attr interpolationmode sample-hold
attr source radioModeChanged
attr title "Radio mode, vector"
vector 335 SingleQueue.host[335].wlan.radio radioMode:vector ETV
attr interpolationmode sample-hold
attr source radioModeChanged
attr title "Radio mode, vector"
vector 336 SingleQueue.host[336].wlan.radio radioMode:vector ETV
attr interpolationmode sample-hold
attr source radioModeChanged
attr title "Radio mode, vector"
vector 337 SingleQueue.host[337].wlan.radio radioMode:vector ETV
attr interpolationmode sample-hold
attr source radioModeChanged
attr title "Radio mode, vector"
vector 338 SingleQueue.host[338].wlan.radio radioMode:vector ETV
attr interpolationmode sample-hold
attr source radioModeChanged
attr title "Radio mode, vector"
vector 339 SingleQueue.host[339].wlan.radio radioMode:vector ETV
attr interpolationmode sample-hold
attr source radioModeChanged
attr title "Radio mode, vector"
vector 340 SingleQueue.host[340].wlan.radio radioMode:vector ETV
attr interpolationmode sample-hold
attr source radioModeChanged
attr title "Radio mode, vector"
vector 341 SingleQueue.host[341].wlan.radio radioMode:vector ETV
attr interpolationmode sample-hold
attr source radioModeChanged
attr title "Radio mode, vector"
vector 342 SingleQueue.host[342].wlan.radio radioMode:vector ETV
attr interpolationmode sample-hold
attr source radioModeChanged
attr title "Radio mode, vector"
vector 343 SingleQueue.host[343].wlan.radio radioMode:vector ETV
attr interpolationmode sample-hold
attr source radioModeChanged
attr title "Radio mode, vector"
vector 344 SingleQueue.host[344].wlan.radio radioMode:vector ETV
attr interpolationmode sample-hold
attr source radioModeChanged
attr title "Radio mode, vector"
vector 345 SingleQueue.host[345].wlan.radio radioMode:vector ETV
attr interpolationmode sample-hold
attr source radioModeChanged
attr title "Radio mode, vector"
vector 346 SingleQueue.host[346].wlan.radio radioMode:vector ETV
attr interpolationmode sample-hold
attr source radioModeChanged
attr title "Radio mode, vector"
vector 347 SingleQueue.host[347].wlan.radio radioMode:vector ETV
attr interpolationmode sample-hold
attr source radioModeChanged
attr title "Radio mode, vector"
vector 348 SingleQueue.host[348].wlan.radio radioMode:vector ETV
attr interpolationmode sample-hold
attr source radioModeChanged
attr title "Radio mode, vector"
vector 349 SingleQueue.host[349].wlan.radio radioMode:vector ETV
attr interpolationmode sample-hold
attr source radioModeChanged
attr title "Radio mode, vector"
vector 350 SingleQueue.host[350].wlan.radio radioMode:vector ETV
attr interpolationmode sample-hold
attr source radioModeChanged
attr title "Radio mode, vector"
vector 351 SingleQueue.host[351].wlan.radio radioMode:vector ETV
attr interpolationmode sample-hold
attr source radioModeChanged
attr title "Radio mode, vector"
vector 352 SingleQueue.host[352].wlan.radio radioMode:vector ETV
attr interpolationmode sample-hold
attr source radioModeChanged
attr title "Radio mode, vector"
vector 353 SingleQueue.host[353].wlan.radio radioMode:vector ETV
attr interpolationmode sample-hold
attr source radioModeChanged
attr title "Radio mode, vector"
vector 354 SingleQueue.host[354].wlan.radio radioMode:vector ETV
attr interpolationmode sample-hold
attr source radioModeChanged
attr title "Radio mode, vector"
vector 355 SingleQueue.host[355].wlan.radio radioMode:vector ETV
attr interpolationmode sample-hold
attr source radioModeChanged
attr title "Radio mode, vector"
vector 356 SingleQueue.host[356].wlan.radio radioMode:vector ETV
attr interpolationmode sample-hold
attr source radioModeChanged
attr title "Radio mode, vector"
vector 357 SingleQueue.host[357].wlan.radio radioMode:vector ETV
attr interpolationmode sample-hold
attr source radioModeChanged
attr title "Radio mode, vector"
vector 358 SingleQueue.host[358].wlan.radio radioMode:vector ETV
attr interpolationmode sample-hold
attr source radioModeChanged
attr title "Radio mode, vector"
vector 359 SingleQueue.host[359].wlan.radio radioMode:vector ETV
attr interpolationmode sample-hold
attr source radioModeChanged
attr title "Radio mode, vector"
vector 360 SingleQueue.host[360].wlan.radio radioMode:vector ETV
attr interpolationmode sample-hold
attr source radioModeChanged
attr title "Radio mode, vector"
vector 361 SingleQueue.host[361].wlan.radio radioMode:vector ETV
attr interpolationmode sample-hold
attr source radioModeChanged
attr title "Radio mode, vector"
vector 362 SingleQueue.host[362].wlan.radio radioMode:vector ETV
attr interpolationmode sample-hold
attr source radioModeChanged
attr title "Radio mode, vector"
vector 363 SingleQueue.host[363].wlan.radio radioMode:vector ETV
attr interpolationmode sample-hold
attr source radioModeChanged
attr title "Radio mode, vector"
vector 364 SingleQueue.host[364].wlan.radio radioMode:vector ETV
attr interpolationmode sample-hold
attr source radioModeChanged
attr title "Radio mode, vector"
vector 365 SingleQueue.host[365].wlan.radio radioMode:vector ETV
attr interpolationmode sample-hold
attr source radioModeChanged
attr title "Radio mode, vector"
vector 366 SingleQueue.host[366].wlan.radio radioMode:vector ETV
attr interpolationmode sample-hold
attr source radioModeChanged
attr title "Radio mode, vector"
vector 367 SingleQueue.host[367].wlan.radio radioMode:vector ETV
attr interpolationmode sample-hold
attr source radioModeChanged
attr title "Radio mode, vector"
vector 368 SingleQueue.host[368].wlan.radio radioMode:vector ETV
attr interpolationmode sample-hold
attr source radioModeChanged
attr title "Radio mode, vector"
vector 369 SingleQueue.host[369].wlan.radio radioMode:vector ETV
attr interpolationmode sample-hold
attr source radioModeChanged
attr title "Radio mode, vector"
vector 370 SingleQueue.host[370].wlan.radio radioMode:vector ETV
attr interpolationmode sample-hold
attr source radioModeChanged
attr title "Radio mode, vector"
vector 371 SingleQueue.host[371].wlan.radio radioMode:vector ETV
attr interpolationmode sample-hold
attr source radioModeChanged
attr title "Radio mode, vector"
vector 372 SingleQueue.host[372].wlan.radio radioMode:vector ETV
attr interpolationmode sample-hold
attr source radioModeChanged
attr title "Radio mode, vector"
vector 373 SingleQueue.host[373].wlan.radio radioMode:vector ETV
attr interpolationmode sample-hold
attr source radioModeChanged
attr title "Radio mode, vector"
vector 374 SingleQueue.host[374].wlan.radio radioMode:vector ETV
attr interpolationmode sample-hold
attr source radioModeChanged
attr title "Radio mode, vector"
vector 375 SingleQueue.host[375].wlan.radio radioMode:vector ETV
attr interpolationmode sample-hold
attr source radioModeChanged
attr title "Radio mode, vector"
vector 376 SingleQueue.host[376].wlan.radio radioMode:vector ETV
attr interpolationmode sample-hold
attr source radioModeChanged
attr title "Radio mode, vector"
vector 377 SingleQueue.host[377].wlan.radio radioMode:vector ETV
attr interpolationmode sample-hold
attr source radioModeChanged
attr title "Radio mode, vector"
vector 378 SingleQueue.host[378].wlan.radio radioMode:vector ETV
attr interpolationmode sample-hold
attr source radioModeChanged
attr title "Radio mode, vector"
vector 379 SingleQueue.host[379].wlan.radio radioMode:vector ETV
attr interpolationmode sample-hold
attr source radioModeChanged
attr title "Radio mode, vector"
vector 380 SingleQueue.host[380].wlan.radio radioMode:vector ETV
attr interpolationmode sample-hold
attr source radioModeChanged
attr title "Radio mode, vector"
vector 381 SingleQueue.host[381].wlan.radio radioMode:vector ETV
attr interpolationmode sample-hold
attr source radioModeChanged
attr title "Radio mode, vector"
vector 382 SingleQueue.host[382].wlan.radio radioMode:vector ETV
attr interpolationmode sample-hold
attr source radioModeChanged
attr title "Radio mode, vector"
vector 383 SingleQueue.host[383].wlan.radio radioMode:vector ETV
attr interpolationmode sample-hold
attr source radioModeChanged
attr title "Radio mode, vector"
vector 384 SingleQueue.host[384].wlan.radio radioMode:vector ETV
attr interpolationmode sample-hold
attr source radioModeChanged
attr title "Radio mode, vector"
vector 385 SingleQueue.host[385].wlan.radio radioMode:vector ETV
attr interpolationmode sample-hold
attr source radioModeChanged
attr title "Radio mode, vector"
vector 386 SingleQueue.host[386].wlan.radio radioMode:vector ETV
attr interpolationmode sample-hold
attr source radioModeChanged
attr title "Radio mode, vector"
vector 387 SingleQueue.host[387].wlan.radio radioMode:vector ETV
attr interpolationmode sample-hold
attr source radioModeChanged
attr title "Radio mode, vector"
vector 388 SingleQueue.host[388].wlan.radio radioMode:vector ETV
attr interpolationmode sample-hold
attr source radioModeChanged
attr title "Radio mode, vector"
vector 389 SingleQueue.host[389].wlan.radio radioMode:vector ETV
attr interpolationmode sample-hold
attr source radioModeChanged
attr title "Radio mode, vector"
vector 390 SingleQueue.host[390].wlan.radio radioMode:vector ETV
attr interpolationmode sample-hold
attr source radioModeChanged
attr title "Radio mode, vector"
vector 391 SingleQueue.host[391].wlan.radio radioMode:vector ETV
attr interpolationmode sample-hold
attr source radioModeChanged
attr title "Radio mode, vector"
vector 392 SingleQueue.host[392].wlan.radio radioMode:vector ETV
attr interpolationmode sample-hold
attr source radioModeChanged
attr title "Radio mode, vector"
vector 393 SingleQueue.host[393].wlan.radio radioMode:vector ETV
attr interpolationmode sample-hold
attr source radioModeChanged
attr title "Radio mode, vector"
vector 394 SingleQueue.host[394].wlan.radio radioMode:vector ETV
attr interpolationmode sample-hold
attr source radioModeChanged
attr title "Radio mode, vector"
vector 395 SingleQueue.host[395].wlan.radio radioMode:vector ETV
attr interpolationmode sample-hold
attr source radioModeChanged
attr title "Radio mode, vector"
vector 396 SingleQueue.host[396].wlan.radio radioMode:vector ETV
attr interpolationmode sample-hold
attr source radioModeChanged
attr title "Radio mode, vector"
vector 397 SingleQueue.host[397].wlan.radio radioMode:vector ETV
attr interpolationmode sample-hold
attr source radioModeChanged
attr title "Radio mode, vector"
vector 398 SingleQueue.host[398].wlan.radio radioMode:vector ETV
attr interpolationmode sample-hold
attr source radioModeChanged
attr title "Radio mode, vector"
vector 399 SingleQueue.host[399].wlan.radio radioMode:vector ETV
attr interpolationmode sample-hold
attr source radioModeChanged
attr title "Radio mode, vector"
vector 400 SingleQueue.host[400].wlan.radio radioMode:vector ETV
attr interpolationmode sample-hold
attr source radioModeChanged
attr title "Radio mode, vector"
vector 401 SingleQueue.host[401].wlan.radio radioMode:vector ETV
attr interpolationmode sample-hold
attr source radioModeChanged
attr title "Radio mode, vector"
vector 402 SingleQueue.host[402].wlan.radio radioMode:vector ETV
attr interpolationmode sample-hold
attr source radioModeChanged
attr title "Radio mode, vector"
vector 403 SingleQueue.host[403].wlan.radio radioMode:vector ETV
attr interpolationmode sample-hold
attr source radioModeChanged
attr title "Radio mode, vector"
vector 404 SingleQueue.host[404].wlan.radio radioMode:vector ETV
attr interpolationmode sample-hold
attr source radioModeChanged
attr title "Radio mode, vector"
vector 405 SingleQueue.host[405].wlan.radio radioMode:vector ETV
attr interpolationmode sample-hold
attr source radioModeChanged
attr title "Radio mode, vector"
vector 406 SingleQueue.host[406].wlan.radio radioMode:vector ETV
attr interpolationmode sample-hold
attr source radioModeChanged
attr title "Radio mode, vector"
vector 407 SingleQueue.host[407].wlan.radio radioMode:vector ETV
attr interpolationmode sample-hold
attr source radioModeChanged
attr title "Radio mode, vector"
vector 408 SingleQueue.host[408].wlan.radio radioMode:vector ETV
attr interpolationmode sample-hold
attr source radioModeChanged
attr title "Radio mode, vector"
vector 409 SingleQueue.host[409].wlan.radio radioMode:vector ETV
attr interpolationmode sample-hold
attr source radioModeChanged
attr title "Radio mode, vector"
vector 410 SingleQueue.host[410].wlan.radio radioMode:vector ETV
attr interpolationmode sample-hold
attr source radioModeChanged
attr title "Radio mode, vector"
vector 411 SingleQueue.host[411].wlan.radio radioMode:vector ETV
attr interpolationmode sample-hold
attr source radioModeChanged
attr title "Radio mode, vector"
vector 412 SingleQueue.host[412].wlan.radio radioMode:vector ETV
attr interpolationmode sample-hold
attr source radioModeChanged
attr title "Radio mode, vector"
vector 413 SingleQueue.host[413].wlan.radio radioMode:vector ETV
attr interpolationmode sample-hold
attr source radioModeChanged
attr title "Radio mode, vector"
vector 414 SingleQueue.host[414].wlan.radio radioMode:vector ETV
attr interpolationmode sample-hold
attr source radioModeChanged
attr title "Radio mode, vector"
vector 415 SingleQueue.host[415].wlan.radio radioMode:vector ETV
attr interpolationmode sample-hold
attr source radioModeChanged
attr title "Radio mode, vector"
vector 416 SingleQueue.host[416].wlan.radio radioMode:vector ETV
attr interpolationmode sample-hold
attr source radioModeChanged
attr title "Radio mode, vector"
vector 417 SingleQueue.host[417].wlan.radio radioMode:vector ETV
attr interpolationmode sample-hold
attr source radioModeChanged
attr title "Radio mode, vector"
vector 418 SingleQueue.host[418].wlan.radio radioMode:vector ETV
attr interpolationmode sample-hold
attr source radioModeChanged
attr title "Radio mode, vector"
vector 419 SingleQueue.host[419].wlan.radio radioMode:vector ETV
attr interpolationmode sample-hold
attr source radioModeChanged
attr title "Radio mode, vector"
vector 420 SingleQueue.host[420].wlan.radio radioMode:vector ETV
attr interpolationmode sample-hold
attr source radioModeChanged
attr title "Radio mode, vector"
vector 421 SingleQueue.host[421].wlan.radio radioMode:vector ETV
attr interpolationmode sample-hold
attr source radioModeChanged
attr title "Radio mode, vector"
vector 422 SingleQueue.host[422].wlan.radio radioMode:vector ETV
attr interpolationmode sample-hold
attr source radioModeChanged
attr title "Radio mode, vector"
vector 423 SingleQueue.host[423].wlan.radio radioMode:vector ETV
attr interpolationmode sample-hold
attr source radioModeChanged
attr title "Radio mode, vector"
vector 424 SingleQueue.host[424].wlan.radio radioMode:vector ETV
attr interpolationmode sample-hold
attr source radioModeChanged
attr title "Radio mode, vector"
vector 425 SingleQueue.host[425].wlan.radio radioMode:vector ETV
attr interpolationmode sample-hold
attr source radioModeChanged
attr title "Radio mode, vector"
vector 426 SingleQueue.host[426].wlan.radio radioMode:vector ETV
attr interpolationmode sample-hold
attr source radioModeChanged
attr title "Radio mode, vector"
vector 427 SingleQueue.host[427].wlan.radio radioMode:vector ETV
attr interpolationmode sample-hold
attr source radioModeChanged
attr title "Radio mode, vector"
vector 428 SingleQueue.host[428].wlan.radio radioMode:vector ETV
attr interpolationmode sample-hold
attr source radioModeChanged
attr title "Radio mode, vector"
vector 429 SingleQueue.host[429].wlan.radio radioMode:vector ETV
attr interpolationmode sample-hold
attr source radioModeChanged
attr title "Radio mode, vector"
vector 430 SingleQueue.host[430].wlan.radio radioMode:vector ETV
attr interpolationmode sample-hold
attr source radioModeChanged
attr title "Radio mode, vector"
vector 431 SingleQueue.host[431].wlan.radio radioMode:vector ETV
attr interpolationmode sample-hold
attr source radioModeChanged
attr title "Radio mode, vector"
vector 432 SingleQueue.host[432].wlan.radio radioMode:vector ETV
attr interpolationmode sample-hold
attr source radioModeChanged
attr title "Radio mode, vector"
vector 433 SingleQueue.host[433].wlan.radio radioMode:vector ETV
attr interpolationmode sample-hold
attr source radioModeChanged
attr title "Radio mode, vector"
vector 434 SingleQueue.host[434].wlan.radio radioMode:vector ETV
attr interpolationmode sample-hold
attr source radioModeChanged
attr title "Radio mode, vector"
vector 435 SingleQueue.host[435].wlan.radio radioMode:vector ETV
attr interpolationmode sample-hold
attr source radioModeChanged
attr title "Radio mode, vector"
vector 436 SingleQueue.host[436].wlan.radio radioMode:vector ETV
attr interpolationmode sample-hold
attr source radioModeChanged
attr title "Radio mode, vector"
vector 437 SingleQueue.host[437].wlan.radio radioMode:vector ETV
attr interpolationmode sample-hold
attr source radioModeChanged
attr title "Radio mode, vector"
vector 438 SingleQueue.host[438].wlan.radio radioMode:vector ETV
attr interpolationmode sample-hold
attr source radioModeChanged
attr title "Radio mode, vector"
vector 439 SingleQueue.host[439].wlan.radio radioMode:vector ETV
attr interpolationmode sample-hold
attr source radioModeChanged
attr title "Radio mode, vector"
vector 440 SingleQueue.host[440].wlan.radio radioMode:vector ETV
attr interpolationmode sample-hold
attr source radioModeChanged
attr title "Radio mode, vector"
vector 441 SingleQueue.host[441].wlan.radio radioMode:vector ETV
attr interpolationmode sample-hold
attr source radioModeChanged
attr title "Radio mode, vector"
vector 442 SingleQueue.host[442].wlan.radio radioMode:vector ETV
attr interpolationmode sample-hold
attr source radioModeChanged
attr title "Radio mode, vector"
vector 443 SingleQueue.host[443].wlan.radio radioMode:vector ETV
attr interpolationmode sample-hold
attr source radioModeChanged
attr title "Radio mode, vector"
vector 444 SingleQueue.host[444].wlan.radio radioMode:vector ETV
attr interpolationmode sample-hold
attr source radioModeChanged
attr title "Radio mode, vector"
vector 445 SingleQueue.host[445].wlan.radio radioMode:vector ETV
attr interpolationmode sample-hold
attr source radioModeChanged
attr title "Radio mode, vector"
vector 446 SingleQueue.host[446].wlan.radio radioMode:vector ETV
attr interpolationmode sample-hold
attr source radioModeChanged
attr title "Radio mode, vector"
vector 447 SingleQueue.host[447].wlan.radio radioMode:vector ETV
attr interpolationmode sample-hold
attr source radioModeChanged
attr title "Radio mode, vector"
vector 448 SingleQueue.host[448].wlan.radio radioMode:vector ETV
attr interpolationmode sample-hold
attr source radioModeChanged
attr title "Radio mode, vector"
vector 449 SingleQueue.host[449].wlan.radio radioMode:vector ETV
attr interpolationmode sample-hold
attr source radioModeChanged
attr title "Radio mode, vector"
vector 450 SingleQueue.host[450].wlan.radio radioMode:vector ETV
attr interpolationmode sample-hold
attr source radioModeChanged
attr title "Radio mode, vector"
vector 451 SingleQueue.host[451].wlan.radio radioMode:vector ETV
attr interpolationmode sample-hold
attr source radioModeChanged
attr title "Radio mode, vector"
vector 452 SingleQueue.host[452].wlan.radio radioMode:vector ETV
attr interpolationmode sample-hold
attr source radioModeChanged
attr title "Radio mode, vector"
vector 453 SingleQueue.host[453].wlan.radio radioMode:vector ETV
attr interpolationmode sample-hold
attr source radioModeChanged
attr title "Radio mode, vector"
vector 454 SingleQueue.host[454].wlan.radio radioMode:vector ETV
attr interpolationmode sample-hold
attr source radioModeChanged
attr title "Radio mode, vector"
vector 455 SingleQueue.host[455].wlan.radio radioMode:vector ETV
attr interpolationmode sample-hold
attr source radioModeChanged
attr title "Radio mode, vector"
vector 456 SingleQueue.host[456].wlan.radio radioMode:vector ETV
attr interpolationmode sample-hold
attr source radioModeChanged
attr title "Radio mode, vector"
vector 457 SingleQueue.host[457].wlan.radio radioMode:vector ETV
attr interpolationmode sample-hold
attr source radioModeChanged
attr title "Radio mode, vector"
vector 458 SingleQueue.host[458].wlan.radio radioMode:vector ETV
attr interpolationmode sample-hold
attr source radioModeChanged
attr title "Radio mode, vector"
vector 459 SingleQueue.host[459].wlan.radio radioMode:vector ETV
attr interpolationmode sample-hold
attr source radioModeChanged
attr title "Radio mode, vector"
vector 460 SingleQueue.host[460].wlan.radio radioMode:vector ETV
attr interpolationmode sample-hold
attr source radioModeChanged
attr title "Radio mode, vector"
vector 461 SingleQueue.host[461].wlan.radio radioMode:vector ETV
attr interpolationmode sample-hold
attr source radioModeChanged
attr title "Radio mode, vector"
vector 462 SingleQueue.host[462].wlan.radio radioMode:vector ETV
attr interpolationmode sample-hold
attr source radioModeChanged
attr title "Radio mode, vector"
vector 463 SingleQueue.host[463].wlan.radio radioMode:vector ETV
attr interpolationmode sample-hold
attr source radioModeChanged
attr title "Radio mode, vector"
vector 464 SingleQueue.host[464].wlan.radio radioMode:vector ETV
attr interpolationmode sample-hold
attr source radioModeChanged
attr title "Radio mode, vector"
vector 465 SingleQueue.host[465].wlan.radio radioMode:vector ETV
attr interpolationmode sample-hold
attr source radioModeChanged
attr title "Radio mode, vector"
vector 466 SingleQueue.host[466].wlan.radio radioMode:vector ETV
attr interpolationmode sample-hold
attr source radioModeChanged
attr title "Radio mode, vector"
vector 467 SingleQueue.host[467].wlan.radio radioMode:vector ETV
attr interpolationmode sample-hold
attr source radioModeChanged
attr title "Radio mode, vector"
vector 468 SingleQueue.host[468].wlan.radio radioMode:vector ETV
attr interpolationmode sample-hold
attr source radioModeChanged
attr title "Radio mode, vector"
vector 469 SingleQueue.host[469].wlan.radio radioMode:vector ETV
attr interpolationmode sample-hold
attr source radioModeChanged
attr title "Radio mode, vector"
vector 470 SingleQueue.host[470].wlan.radio radioMode:vector ETV
attr interpolationmode sample-hold
attr source radioModeChanged
attr title "Radio mode, vector"
vector 471 SingleQueue.host[471].wlan.radio radioMode:vector ETV
attr interpolationmode sample-hold
attr source radioModeChanged
attr title "Radio mode, vector"
vector 472 SingleQueue.host[472].wlan.radio radioMode:vector ETV
attr interpolationmode sample-hold
attr source radioModeChanged
attr title "Radio mode, vector"
vector 473 SingleQueue.host[473].wlan.radio radioMode:vector ETV
attr interpolationmode sample-hold
attr source radioModeChanged
attr title "Radio mode, vector"
vector 474 SingleQueue.host[474].wlan.radio radioMode:vector ETV
attr interpolationmode sample-hold
attr source radioModeChanged
attr title "Radio mode, vector"
vector 475 SingleQueue.host[475].wlan.radio radioMode:vector ETV
attr interpolationmode sample-hold
attr source radioModeChanged
attr title "Radio mode, vector"
vector 476 SingleQueue.host[476].wlan.radio radioMode:vector ETV
attr interpolationmode sample-hold
attr source radioModeChanged
attr title "Radio mode, vector"
vector 477 SingleQueue.host[477].wlan.radio radioMode:vector ETV
attr interpolationmode sample-hold
attr source radioModeChanged
attr title "Radio mode, vector"
vector 478 SingleQueue.host[478].wlan.radio radioMode:vector ETV
attr interpolationmode sample-hold
attr source radioModeChanged
attr title "Radio mode, vector"
vector 479 SingleQueue.host[479].wlan.radio radioMode:vector ETV
attr interpolationmode sample-hold
attr source radioModeChanged
attr title "Radio mode, vector"
vector 480 SingleQueue.host[480].wlan.radio radioMode:vector ETV
attr interpolationmode sample-hold
attr source radioModeChanged
attr title "Radio mode, vector"
vector 481 SingleQueue.host[481].wlan.radio radioMode:vector ETV
attr interpolationmode sample-hold
attr source radioModeChanged
attr title "Radio mode, vector"
vector 482 SingleQueue.host[482].wlan.radio radioMode:vector ETV
attr interpolationmode sample-hold
attr source radioModeChanged
attr title "Radio mode, vector"
[...]
11592	3905000 22 1891052 1891052 18 18 1 1020 1020 1020 1040400
11593	3905022 38 1891052 1891052 18 18 2 0 1 1 1
11594	3905060 22 1891052 1891052 18 18 1 1020 1020 1020 1040400
11595	3905082 19 1891052 1891052 18 18 1 0 0 0 0
11596	3905101 86 1891052 1917312 18 18.0104 4 0 2 4 6
11597	3905187 22 1891052 1891052 18 18 1 1036 1036 1036 1073296
11598	3905209 22 1891053 1891053 18 18 1 1020 1020 1020 1040400
11599	3905231 22 1891053 1891053 18 18 1 1020 1020 1020 1040400
11600	3905253 38 1891053 1891053 18 18 2 0 1 1 1
11601	3905291 22 1891053 1891053 18 18 1 1020 1020 1020 1040400
11602	3905313 19 1891053 1891053 18 18 1 0 0 0 0
11603	3905332 86 1891053 1917313 18 18.0104 4 0 2 4 6
11604	3905418 22 1891053 1891053 18 18 1 1036 1036 1036 1073296
11605	3905440 22 1891054 1891054 18 18 1 1020 1020 1020 1040400
11606	3905462 22 1891054 1891054 18 18 1 1020 1020 1020 1040400
11607	3905484 38 1891054 1891054 18 18 2 0 1 1 1
11608	3905522 22 1891054 1891054 18 18 1 1020 1020 1020 1040400
11609	3905544 19 1891054 1891054 18 18 1 0 0 0 0
11610	3905563 90 1891054 1920414 18 18.010624 4 0 2 4 6
11611	3905653 22 1891054 1891054 18 18 1 1036 1036 1036 1073296
11612	3905675 22 1891055 1891055 18 18 1 1020 1020 1020 1040400
11613	3905697 22 1891055 1891055 18 18 1 1020 1020 1020 1040400
11614	3905719 38 1891055 1891055 18 18 2 0 1 1 1
11615	3905757 22 1891055 1891055 18 18 1 1020 1020 1020 1040400
11616	3905779 19 1891055 1891055 18 18 1 0 0 0 0
11617	3905798 90 1891055 1920415 18 18.010624 4 0 2 4 6
11618	3905888 22 1891055 1891055 18 18 1 1036 1036 1036 1073296
11619	3905910 22 1891056 1891056 18 18 1 1020 1020 1020 1040400
11620	3905932 22 1891056 1891056 18 18 1 1020 1020 1020 1040400
11621	3905954 38 1891056 1891056 18 18 2 0 1 1 1
11622	3905992 22 1891056 1891056 18 18 1 1020 1020 1020 1040400
11623	3906014 19 1891056 1891056 18 18 1 0 0 0 0
11624	3906033 90 1891056 1922442 18 18.010848 4 0 2 4 6
11625	3906123 22 1891056 1891056 18 18 1 1036 1036 1036 1073296
11626	3906145 22 1891057 1891057 18 18 1 1020 1020 1020 1040400
11627	3906167 22 1891057 1891057 18 18 1 1020 1020 1020 1040400
11628	3906189 38 1891057 1891057 18 18 2 0 1 1 1
11629	3906227 22 1891057 1891057 18 18 1 1020 1020 1020 1040400
11630	3906249 19 1891057 1891057 18 18 1 0 0 0 0
11631	3906268 90 1891057 1922443 18 18.010848 4 0 2 4 6
11632	3906358 22 1891057 1891057 18 18 1 1036 1036 1036 1073296
11633	3906380 22 1891058 1891058 18 18 1 1020 1020 1020 1040400
11634	3906402 22 1891058 1891058 18 18 1 1020 1020 1020 1040400
11635	3906424 38 1891058 1891058 18 18 2 0 1 1 1
11636	3906462 22 1891058 1891058 18 18 1 1020 1020 1020 1040400
11637	3906484 19 1891058 1891058 18 18 1 0 0 0 0
11638	3906503 90 1891058 1912118 18 18.010176 4 0 2 4 6
11639	3906593 22 1891058 1891058 18 18 1 1036 1036 1036 1073296
11640	3906615 22 1891059 1891059 18 18 1 1020 1020 1020 1040400
11641	3906637 22 1891059 1891059 18 18 1 1020 1020 1020 1040400
11642	3906659 38 1891059 1891059 18 18 2 0 1 1 1
11643	3906697 22 1891059 1891059 18 18 1 1020 1020 1020 1040400
11644	3906719 19 1891059 1891059 18 18 1 0 0 0 0
11645	3906738 90 1891059 1924499 18 18.011072 4 0 2 4 6
11646	3906828 22 1891059 1891059 18 18 1 1036 1036 1036 1073296
11647	3906850 22 1891060 1891060 18 18 1 1020 1020 1020 1040400
11648	3906872 22 1891060 1891060 18 18 1 1020 1020 1020 1040400
11649	3906894 38 1891060 1891060 18 18 2 0 1 1 1
11650	3906932 22 1891060 1891060 18 18 1 1020 1020 1020 1040400
11651	3906954 19 1891060 1891060 18 18 1 0 0 0 0
11652	3906973 90 1891060 1924500 18 18.011072 4 0 2 4 6
11653	3907063 22 1891060 1891060 18 18 1 1036 1036 1036 1073296
11654	3907085 22 1891061 1891061 18 18 1 1020 1020 1020 1040400
11655	3907107 22 1891061 1891061 18 18 1 1020 1020 1020 1040400
11656	3907129 38 1891061 1891061 18 18 2 0 1 1 1
11657	3907167 22 1891061 1891061 18 18 1 1020 1020 1020 1040400
11658	3907189 19 1891061 1891061 18 18 1 0 0 0 0
11659	3907208 90 1891061 1926517 18 18.011296 4 0 2 4 6
11660	3907298 22 1891061 1891061 18 18 1 1036 1036 1036 1073296
11661	3907320 22 1891062 1891062 18 18 1 1020 1020 1020 1040400
11662	3907342 22 1891062 1891062 18 18 1 1020 1020 1020 1040400
11663	3907364 38 1891062 1891062 18 18 2 0 1 1 1
11664	3907402 22 1891062 1891062 18 18 1 1020 1020 1020 1040400
11665	3907424 19 1891062 1891062 18 18 1 0 0 0 0
11666	3907443 90 1891062 1926518 18 18.011296 4 0 2 4 6
11667	3907533 22 1891062 1891062 18 18 1 1036 1036 1036 1073296
11668	3907555 22 1891063 1891063 18 18 1 1020 1020 1020 1040400
11669	3907577 22 1891063 1891063 18 18 1 1020 1020 1020 1040400
11670	3907599 38 1891063 1891063 18 18 2 0 1 1 1
11671	3907637 22 1891063 1891063 18 18 1 1020 1020 1020 1040400
11672	3907659 19 1891063 1891063 18 18 1 0 0 0 0
11673	3907678 90 1891063 1926519 18 18.011296 4 0 2 4 6
11674	3907768 22 1891063 1891063 18 18 1 1036 1036 1036 1073296
11675	3907790 56 1917152 1965166 18.010176 20.0104 2 1020 1020 2040 2080800
11676	3907846 56 1917166 1947717 18.010176 19.0104 2 1020 1020 2040 2080800
11677	3907902 87 1917192 1982537 18.010176 21.010624 3 1020 1020 3060 3121200
11678	3907989 83 1920379 1982523 18.0104 21.010624 3 1020 1020 3060 3121200
11679	3908072 22 1929550 1929550 19 19 1 1020 1020 1020 1040400
11680	3908094 22 1929550 1929550 19 19 1 1020 1020 1020 1040400
11681	3908116 38 1929550 1929550 19 19 2 0 1 1 1
11682	3908154 22 1929550 1929550 19 19 1 1020 1020 1020 1040400
11683	3908176 19 1929550 1929550 19 19 1 0 0 0 0
11684	3908195 86 1929550 1943633 19 19.0104 4 0 2 4 6
11685	3908281 22 1929550 1929550 19 19 1 1036 1036 1036 1073296
11686	3908303 22 1929551 1929551 19 19 1 1020 1020 1020 1040400
11687	3908325 22 1929551 1929551 19 19 1 1020 1020 1020 1040400
11688	3908347 38 1929551 1929551 19 19 2 0 1 1 1
11689	3908385 22 1929551 1929551 19 19 1 1020 1020 1020 1040400
11690	3908407 19 1929551 1929551 19 19 1 0 0 0 0
11691	3908426 90 1929551 1942564 19 19.010176 4 0 2 4 6
11692	3908516 22 1929551 1929551 19 19 1 1036 1036 1036 1073296
11693	3908538 22 1929552 1929552 19 19 1 1020 1020 1020 1040400
11694	3908560 22 1929552 1929552 19 19 1 1020 1020 1020 1040400
11695	3908582 38 1929552 1929552 19 19 2 0 1 1 1
11696	3908620 22 1929552 1929552 19 19 1 1020 1020 1020 1040400
11697	3908642 19 1929552 1929552 19 19 1 0 0 0 0
11698	3908661 90 1929552 1949931 19 19.010848 4 0 2 4 6
11699	3908751 22 1929552 1929552 19 19 1 1036 1036 1036 1073296
11700	3908773 22 1929553 1929553 19 19 1 1020 1020 1020 1040400
11701	3908795 22 1929553 1929553 19 19 1 1020 1020 1020 1040400
11702	3908817 38 1929553 1929553 19 19 2 0 1 1 1
11703	3908855 22 1929553 1929553 19 19 1 1020 1020 1020 1040400
11704	3908877 19 1929553 1929553 19 19 1 0 0 0 0
11705	3908896 90 1929553 1949932 19 19.010848 4 0 2 4 6
11706	3908986 22 1929553 1929553 19 19 1 1036 1036 1036 1073296
11707	3909008 22 1929554 1929554 19 19 1 1020 1020 1020 1040400
11708	3909030 22 1929554 1929554 19 19 1 1020 1020 1020 1040400
11709	3909052 38 1929554 1929554 19 19 2 0 1 1 1
11710	3909090 22 1929554 1929554 19 19 1 1020 1020 1020 1040400
11711	3909112 19 1929554 1929554 19 19 1 0 0 0 0
11712	3909131 86 1929554 1943634 19 19.0104 4 0 2 4 6
11713	3909217 22 1929554 1929554 19 19 1 1036 1036 1036 1073296
11714	3909239 22 1929555 1929555 19 19 1 1020 1020 1020 1040400
11715	3909261 22 1929555 1929555 19 19 1 1020 1020 1020 1040400
11716	3909283 38 1929555 1929555 19 19 2 0 1 1 1
11717	3909321 22 1929555 1929555 19 19 1 1020 1020 1020 1040400
11718	3909343 19 1929555 1929555 19 19 1 0 0 0 0
11719	3909362 90 1929555 1947878 19 19.010624 4 0 2 4 6
11720	3909452 22 1929555 1929555 19 19 1 1036 1036 1036 1073296
11721	3909474 22 1929556 1929556 19 19 1 1020 1020 1020 1040400
11722	3909496 22 1929556 1929556 19 19 1 1020 1020 1020 1040400
11723	3909518 38 1929556 1929556 19 19 2 0 1 1 1
11724	3909556 22 1929556 1929556 19 19 1 1020 1020 1020 1040400
11725	3909578 19 1929556 1929556 19 19 1 0 0 0 0
11726	3909597 90 1929556 1947879 19 19.010624 4 0 2 4 6
11727	3909687 22 1929556 1929556 19 19 1 1036 1036 1036 1073296
11728	3909709 22 1929557 1929557 19 19 1 1020 1020 1020 1040400
11729	3909731 22 1929557 1929557 19 19 1 1020 1020 1020 1040400
11730	3909753 38 1929557 1929557 19 19 2 0 1 1 1
11731	3909791 22 1929557 1929557 19 19 1 1020 1020 1020 1040400
11732	3909813 19 1929557 1929557 19 19 1 0 0 0 0
11733	3909832 90 1929557 1949933 19 19.010848 4 0 2 4 6
11734	3909922 22 1929557 1929557 19 19 1 1036 1036 1036 1073296
11735	3909944 22 1929558 1929558 19 19 1 1020 1020 1020 1040400
11736	3909966 22 1929558 1929558 19 19 1 1020 1020 1020 1040400
11737	3909988 38 1929558 1929558 19 19 2 0 1 1 1
11738	3910026 22 1929558 1929558 19 19 1 1020 1020 1020 1040400
11739	3910048 19 1929558 1929558 19 19 1 0 0 0 0
11740	3910067 90 1929558 1949934 19 19.010848 4 0 2 4 6
11741	3910157 22 1929558 1929558 19 19 1 1036 1036 1036 1073296
11742	3910179 22 1929559 1929559 19 19 1 1020 1020 1020 1040400
11743	3910201 22 1929559 1929559 19 19 1 1020 1020 1020 1040400
11744	3910223 38 1929559 1929559 19 19 2 0 1 1 1
11745	3910261 22 1929559 1929559 19 19 1 1020 1020 1020 1040400
11746	3910283 19 1929559 1929559 19 19 1 0 0 0 0
11747	3910302 90 1929559 1954043 19 19.011072 4 0 2 4 6
11748	3910392 22 1929559 1929559 19 19 1 1036 1036 1036 1073296
11749	3910414 22 1929560 1929560 19 19 1 1020 1020 1020 1040400
11750	3910436 22 1929560 1929560 19 19 1 1020 1020 1020 1040400
11751	3910458 38 1929560 1929560 19 19 2 0 1 1 1
11752	3910496 22 1929560 1929560 19 19 1 1020 1020 1020 1040400
11753	3910518 19 1929560 1929560 19 19 1 0 0 0 0
11754	3910537 90 1929560 1955118 19 19.011296 4 0 2 4 6
11755	3910627 22 1929560 1929560 19 19 1 1036 1036 1036 1073296
11756	3910649 22 1929561 1929561 19 19 1 1020 1020 1020 1040400
11757	3910671 22 1929561 1929561 19 19 1 1020 1020 1020 1040400
11758	3910693 38 1929561 1929561 19 19 2 0 1 1 1
11759	3910731 22 1929561 1929561 19 19 1 1020 1020 1020 1040400
11760	3910753 19 1929561 1929561 19 19 1 0 0 0 0
11761	3910772 86 1929561 1943635 19 19.0104 4 0 2 4 6
11762	3910858 22 1929561 1929561 19 19 1 1036 1036 1036 1073296
11763	3910880 22 1929562 1929562 19 19 1 1020 1020 1020 1040400
11764	3910902 22 1929562 1929562 19 19 1 1020 1020 1020 1040400
11765	3910924 38 1929562 1929562 19 19 2 0 1 1 1
11766	3910962 22 1929562 1929562 19 19 1 1020 1020 1020 1040400
11767	3910984 19 1929562 1929562 19 19 1 0 0 0 0
11768	3911003 86 1929562 1943636 19 19.0104 4 0 2 4 6
11769	3911089 22 1929562 1929562 19 19 1 1036 1036 1036 1073296
11770	3911111 27 1947681 1947681 19.0104 19.0104 1 1020 1020 1020 1040400
11771	3911138 56 1947735 1967251 19.0104 20.010624 2 1020 1020 2040 2080800
11772	3911194 56 1947749 1982541 19.0104 21.010624 2 1020 1020 2040 2080800
11773	3911250 116 1953965 1999169 19.010848 25.011072 4 1020 1020 4080 4161600
11774	3911366 116 1953967 1997111 19.010848 23.011072 4 1020 1020 4080 4161600
11775	3911482 144 1953971 1999177 19.010848 25.011072 5 1020 1020 5100 5202000
11776	3911626 29 1956119 1956119 19.011296 19.011296 1 1020 1020 1020 1040400
11777	3911655 29 1956120 1956120 19.011296 19.011296 1 1020 1020 1020 1040400
11778	3911684 29 1956122 1956122 19.011296 19.011296 1 1020 1020 1020 1040400
11779	3911713 22 1956152 1956152 20 20 1 1020 1020 1020 1040400
11780	3911735 22 1956152 1956152 20 20 1 1020 1020 1020 1040400
11781	3911757 38 1956152 1956152 20 20 2 0 1 1 1
11782	3911795 22 1956152 1956152 20 20 1 1020 1020 1020 1040400
11783	3911817 19 1956152 1956152 20 20 1 0 0 0 0
11784	3911836 90 1956152 1967337 20 20.010848 4 0 2 4 6
11785	3911926 22 1956152 1956152 20 20 1 1036 1036 1036 1073296
11786	3911948 22 1956153 1956153 20 20 1 1020 1020 1020 1040400
11787	3911970 22 1956153 1956153 20 20 1 1020 1020 1020 1040400
11788	3911992 38 1956153 1956153 20 20 2 0 1 1 1
11789	3912030 22 1956153 1956153 20 20 1 1020 1020 1020 1040400
11790	3912052 19 1956153 1956153 20 20 1 0 0 0 0
11791	3912071 90 1956153 1967338 20 20.010848 4 0 2 4 6
11792	3912161 22 1956153 1956153 20 20 1 1036 1036 1036 1073296
11793	3912183 22 1956154 1956154 20 20 1 1020 1020 1020 1040400
11794	3912205 22 1956154 1956154 20 20 1 1020 1020 1020 1040400
11795	3912227 38 1956154 1956154 20 20 2 0 1 1 1
11796	3912265 22 1956154 1956154 20 20 1 1020 1020 1020 1040400
11797	3912287 19 1956154 1956154 20 20 1 0 0 0 0
11798	3912306 86 1956154 1964161 20 20.0104 4 0 2 4 6
11799	3912392 22 1956154 1956154 20 20 1 1036 1036 1036 1073296
11800	3912414 22 1956155 1956155 20 20 1 1020 1020 1020 1040400
11801	3912436 22 1956155 1956155 20 20 1 1020 1020 1020 1040400
11802	3912458 38 1956155 1956155 20 20 2 0 1 1 1
11803	3912496 22 1956155 1956155 20 20 1 1020 1020 1020 1040400
11804	3912518 19 1956155 1956155 20 20 1 0 0 0 0
11805	3912537 90 1956155 1965213 20 20.010624 4 0 2 4 6
11806	3912627 22 1956155 1956155 20 20 1 1036 1036 1036 1073296
11807	3912649 22 1956156 1956156 20 20 1 1020 1020 1020 1040400
11808	3912671 22 1956156 1956156 20 20 1 1020 1020 1020 1040400
11809	3912693 38 1956156 1956156 20 20 2 0 1 1 1
11810	3912731 22 1956156 1956156 20 20 1 1020 1020 1020 1040400
11811	3912753 19 1956156 1956156 20 20 1 0 0 0 0
11812	3912772 90 1956156 1965214 20 20.010624 4 0 2 4 6
11813	3912862 22 1956156 1956156 20 20 1 1036 1036 1036 1073296
11814	3912884 22 1956157 1956157 20 20 1 1020 1020 1020 1040400
11815	3912906 22 1956157 1956157 20 20 1 1020 1020 1020 1040400
11816	3912928 38 1956157 1956157 20 20 2 0 1 1 1
11817	3912966 22 1956157 1956157 20 20 1 1020 1020 1020 1040400
11818	3912988 19 1956157 1956157 20 20 1 0 0 0 0
11819	3913007 90 1956157 1969361 20 20.011072 4 0 2 4 6
11820	3913097 22 1956157 1956157 20 20 1 1036 1036 1036 1073296
11821	3913119 22 1956158 1956158 20 20 1 1020 1020 1020 1040400
11822	3913141 22 1956158 1956158 20 20 1 1020 1020 1020 1040400
11823	3913163 38 1956158 1956158 20 20 2 0 1 1 1
11824	3913201 22 1956158 1956158 20 20 1 1020 1020 1020 1040400
11825	3913223 19 1956158 1956158 20 20 1 0 0 0 0
11826	3913242 88 1956158 1970399 20 20.01152 4 0 2 4 6
11827	3913330 22 1956158 1956158 20 20 1 1036 1036 1036 1073296
11828	3913352 22 1956159 1956159 20 20 1 1020 1020 1020 1040400
11829	3913374 22 1956159 1956159 20 20 1 1020 1020 1020 1040400
11830	3913396 38 1956159 1956159 20 20 2 0 1 1 1
11831	3913434 22 1956159 1956159 20 20 1 1020 1020 1020 1040400
11832	3913456 19 1956159 1956159 20 20 1 0 0 0 0
11833	3913475 88 1956159 1970400 20 20.01152 4 0 2 4 6
11834	3913563 22 1956159 1956159 20 20 1 1036 1036 1036 1073296
11835	3913585 115 1970364 1999164 20.011072 25.011072 4 1020 1020 4080 4161600
11836	3913700 22 1972442 1972442 21 21 1 1020 1020 1020 1040400
11837	3913722 22 1972442 1972442 21 21 1 1020 1020 1020 1040400
11838	3913744 38 1972442 1972442 21 21 2 0 1 1 1
11839	3913782 22 1972442 1972442 21 21 1 1020 1020 1020 1040400
11840	3913804 19 1972442 1972442 21 21 1 0 0 0 0
11841	3913823 90 1972442 1979449 21 21.010176 4 0 2 4 6
11842	3913913 22 1972442 1972442 21 21 1 1036 1036 1036 1073296
11843	3913935 22 1972443 1972443 21 21 1 1020 1020 1020 1040400
11844	3913957 22 1972443 1972443 21 21 1 1020 1020 1020 1040400
11845	3913979 38 1972443 1972443 21 21 2 0 1 1 1
11846	3914017 22 1972443 1972443 21 21 1 1020 1020 1020 1040400
11847	3914039 19 1972443 1972443 21 21 1 0 0 0 0
11848	3914058 90 1972443 1982616 21 21.010848 4 0 2 4 6
11849	3914148 22 1972443 1972443 21 21 1 1036 1036 1036 1073296
11850	3914170 22 1972444 1972444 21 21 1 1020 1020 1020 1040400
11851	3914192 22 1972444 1972444 21 21 1 1020 1020 1020 1040400
11852	3914214 38 1972444 1972444 21 21 2 0 1 1 1
11853	3914252 22 1972444 1972444 21 21 1 1020 1020 1020 1040400
11854	3914274 19 1972444 1972444 21 21 1 0 0 0 0
11855	3914293 90 1972444 1980493 21 21.010624 4 0 2 4 6
11856	3914383 22 1972444 1972444 21 21 1 1036 1036 1036 1073296
11857	3914405 22 1972445 1972445 21 21 1 1020 1020 1020 1040400
11858	3914427 22 1972445 1972445 21 21 1 1020 1020 1020 1040400
11859	3914449 38 1972445 1972445 21 21 2 0 1 1 1
11860	3914487 22 1972445 1972445 21 21 1 1020 1020 1020 1040400
11861	3914509 19 1972445 1972445 21 21 1 0 0 0 0
11862	3914528 90 1972445 1983654 21 21.011072 4 0 2 4 6
11863	3914618 22 1972445 1972445 21 21 1 1036 1036 1036 1073296
11864	3914640 22 1972446 1972446 21 21 1 1020 1020 1020 1040400
11865	3914662 22 1972446 1972446 21 21 1 1020 1020 1020 1040400
11866	3914684 38 1972446 1972446 21 21 2 0 1 1 1
11867	3914722 22 1972446 1972446 21 21 1 1020 1020 1020 1040400
11868	3914744 19 1972446 1972446 21 21 1 0 0 0 0
11869	3914763 90 1972446 1980494 21 21.010624 4 0 2 4 6
11870	3914853 22 1972446 1972446 21 21 1 1036 1036 1036 1073296
11871	3914875 22 1972447 1972447 21 21 1 1020 1020 1020 1040400
11872	3914897 22 1972447 1972447 21 21 1 1020 1020 1020 1040400
11873	3914919 38 1972447 1972447 21 21 2 0 1 1 1
11874	3914957 22 1972447 1972447 21 21 1 1020 1020 1020 1040400
11875	3914979 19 1972447 1972447 21 21 1 0 0 0 0
11876	3914998 88 1972447 1985748 21 21.01152 4 0 2 4 6
11877	3915086 22 1972447 1972447 21 21 1 1036 1036 1036 1073296
11878	3915108 22 1972448 1972448 21 21 1 1020 1020 1020 1040400
11879	3915130 22 1972448 1972448 21 21 1 1020 1020 1020 1040400
11880	3915152 38 1972448 1972448 21 21 2 0 1 1 1
11881	3915190 22 1972448 1972448 21 21 1 1020 1020 1020 1040400
11882	3915212 19 1972448 1972448 21 21 1 0 0 0 0
11883	3915231 90 1972448 1984684 21 21.011296 4 0 2 4 6
11884	3915321 22 1972448 1972448 21 21 1 1036 1036 1036 1073296
11885	3915343 58 1985693 1997102 21.011296 23.011072 2 1020 1020 2040 2080800
11886	3915401 22 1986783 1986783 22 22 1 1020 1020 1020 1040400
11887	3915423 22 1986783 1986783 22 22 1 1020 1020 1020 1040400
11888	3915445 38 1986783 1986783 22 22 2 0 1 1 1
11889	3915483 22 1986783 1986783 22 22 1 1020 1020 1020 1040400
11890	3915505 19 1986783 1986783 22 22 1 0 0 0 0
11891	3915524 88 1986783 1987787 22 22.01152 4 0 2 4 6
11892	3915612 22 1986783 1986783 22 22 1 1036 1036 1036 1073296
11893	3915634 22 1988853 1988853 23 23 1 1020 1020 1020 1040400
11894	3915656 22 1988853 1988853 23 23 1 1020 1020 1020 1040400
11895	3915678 38 1988853 1988853 23 23 2 0 1 1 1
11896	3915716 22 1988853 1988853 23 23 1 1020 1020 1020 1040400
11897	3915738 19 1988853 1988853 23 23 1 0 0 0 0
11898	3915757 90 1988853 1992857 23 23.009504 4 0 2 4 6
11899	3915847 22 1988853 1988853 23 23 1 1036 1036 1036 1073296
11900	3915869 22 1988854 1988854 23 23 1 1020 1020 1020 1040400
11901	3915891 22 1988854 1988854 23 23 1 1020 1020 1020 1040400
11902	3915913 38 1988854 1988854 23 23 2 0 1 1 1
11903	3915951 22 1988854 1988854 23 23 1 1020 1020 1020 1040400
11904	3915973 19 1988854 1988854 23 23 1 0 0 0 0
11905	3915992 90 1988854 1993929 23 23.010624 4 0 2 4 6
11906	3916082 22 1988854 1988854 23 23 1 1036 1036 1036 1073296
11907	3916104 22 1988855 1988855 23 23 1 1020 1020 1020 1040400
11908	3916126 22 1988855 1988855 23 23 1 1020 1020 1020 1040400
11909	3916148 38 1988855 1988855 23 23 2 0 1 1 1
11910	3916186 22 1988855 1988855 23 23 1 1020 1020 1020 1040400
11911	3916208 19 1988855 1988855 23 23 1 0 0 0 0
11912	3916227 90 1988855 1993930 23 23.010624 4 0 2 4 6
11913	3916317 22 1988855 1988855 23 23 1 1036 1036 1036 1073296
11914	3916339 22 1988856 1988856 23 23 1 1020 1020 1020 1040400
11915	3916361 22 1988856 1988856 23 23 1 1020 1020 1020 1040400
11916	3916383 38 1988856 1988856 23 23 2 0 1 1 1
11917	3916421 22 1988856 1988856 23 23 1 1020 1020 1020 1040400
11918	3916443 19 1988856 1988856 23 23 1 0 0 0 0
11919	3916462 90 1988856 1996093 23 23.011072 4 0 2 4 6
11920	3916552 22 1988856 1988856 23 23 1 1036 1036 1036 1073296
11921	3916574 22 1997159 1997159 25 25 1 1020 1020 1020 1040400
11922	3916596 22 1997159 1997159 25 25 1 1020 1020 1020 1040400
11923	3916618 38 1997159 1997159 25 25 2 0 1 1 1
11924	3916656 22 1997159 1997159 25 25 1 1020 1020 1020 1040400
11925	3916678 19 1997159 1997159 25 25 1 0 0 0 0
11926	3916697 90 1997159 1998160 25 25.011072 4 0 2 4 6
11927	3916787 22 1997159 1997159 25 25 1 1036 1036 1036 1073296

